<?xml version="1.0" encoding="UTF-8"?>

<!-- generated on 2023-05-23 17:15:37 by Eclipse SUMO netedit Version 1.17.0
-->

<additional xmlns:xsi="http://www.w3.org/2001/XMLSchema-instance" xsi:noNamespaceSchemaLocation="http://sumo.dlr.de/xsd/additional_file.xsd">
    <!-- Detectors -->
    <inductionLoop id="e1det_A0A1_0" lane="A0A1_0" pos="53.20" period="60.00" file="e1output.xml" friendlyPos="1"/>
    <inductionLoop id="e1det_A0A1_1" lane="A0A1_1" pos="53.20" period="60.00" file="e1output.xml" friendlyPos="1"/>
    <inductionLoop id="e1det_A0B0_0" lane="A0B0_0" pos="53.20" period="60.00" file="e1output.xml" friendlyPos="1"/>
    <inductionLoop id="e1det_A0B0_1" lane="A0B0_1" pos="53.20" period="60.00" file="e1output.xml" friendlyPos="1"/>
    <inductionLoop id="e1det_A1A0_0" lane="A1A0_0" pos="53.20" period="60.00" file="e1output.xml" friendlyPos="1"/>
    <inductionLoop id="e1det_A1A0_1" lane="A1A0_1" pos="53.20" period="60.00" file="e1output.xml" friendlyPos="1"/>
    <inductionLoop id="e1det_A1A2_0" lane="A1A2_0" pos="49.20" period="60.00" file="e1output.xml" friendlyPos="1"/>
    <inductionLoop id="e1det_A1A2_1" lane="A1A2_1" pos="49.20" period="60.00" file="e1output.xml" friendlyPos="1"/>
    <inductionLoop id="e1det_A1B1_0" lane="A1B1_0" pos="49.20" period="60.00" file="e1output.xml" friendlyPos="1"/>
    <inductionLoop id="e1det_A1B1_1" lane="A1B1_1" pos="49.20" period="60.00" file="e1output.xml" friendlyPos="1"/>
    <inductionLoop id="e1det_A2A1_0" lane="A2A1_0" pos="49.20" period="60.00" file="e1output.xml" friendlyPos="1"/>
    <inductionLoop id="e1det_A2A1_1" lane="A2A1_1" pos="49.20" period="60.00" file="e1output.xml" friendlyPos="1"/>
    <inductionLoop id="e1det_A2A3_0" lane="A2A3_0" pos="49.20" period="60.00" file="e1output.xml" friendlyPos="1"/>
    <inductionLoop id="e1det_A2A3_1" lane="A2A3_1" pos="49.20" period="60.00" file="e1output.xml" friendlyPos="1"/>
    <inductionLoop id="e1det_A2B2_0" lane="A2B2_0" pos="49.20" period="60.00" file="e1output.xml" friendlyPos="1"/>
    <inductionLoop id="e1det_A2B2_1" lane="A2B2_1" pos="49.20" period="60.00" file="e1output.xml" friendlyPos="1"/>
    <inductionLoop id="e1det_A3A2_0" lane="A3A2_0" pos="49.20" period="60.00" file="e1output.xml" friendlyPos="1"/>
    <inductionLoop id="e1det_A3A2_1" lane="A3A2_1" pos="49.20" period="60.00" file="e1output.xml" friendlyPos="1"/>
    <inductionLoop id="e1det_A3A4_0" lane="A3A4_0" pos="53.20" period="60.00" file="e1output.xml" friendlyPos="1"/>
    <inductionLoop id="e1det_A3A4_1" lane="A3A4_1" pos="53.20" period="60.00" file="e1output.xml" friendlyPos="1"/>
    <inductionLoop id="e1det_A3B3_0" lane="A3B3_0" pos="49.20" period="60.00" file="e1output.xml" friendlyPos="1"/>
    <inductionLoop id="e1det_A3B3_1" lane="A3B3_1" pos="49.20" period="60.00" file="e1output.xml" friendlyPos="1"/>
    <inductionLoop id="e1det_A4A3_0" lane="A4A3_0" pos="53.20" period="60.00" file="e1output.xml" friendlyPos="1"/>
    <inductionLoop id="e1det_A4A3_1" lane="A4A3_1" pos="53.20" period="60.00" file="e1output.xml" friendlyPos="1"/>
    <inductionLoop id="e1det_A4B4_0" lane="A4B4_0" pos="53.20" period="60.00" file="e1output.xml" friendlyPos="1"/>
    <inductionLoop id="e1det_A4B4_1" lane="A4B4_1" pos="53.20" period="60.00" file="e1output.xml" friendlyPos="1"/>
    <inductionLoop id="e1det_B0A0_0" lane="B0A0_0" pos="53.20" period="60.00" file="e1output.xml" friendlyPos="1"/>
    <inductionLoop id="e1det_B0A0_1" lane="B0A0_1" pos="53.20" period="60.00" file="e1output.xml" friendlyPos="1"/>
    <inductionLoop id="e1det_B0B1_0" lane="B0B1_0" pos="49.20" period="60.00" file="e1output.xml" friendlyPos="1"/>
    <inductionLoop id="e1det_B0B1_1" lane="B0B1_1" pos="49.20" period="60.00" file="e1output.xml" friendlyPos="1"/>
    <inductionLoop id="e1det_B0C0_0" lane="B0C0_0" pos="49.20" period="60.00" file="e1output.xml" friendlyPos="1"/>
    <inductionLoop id="e1det_B0C0_1" lane="B0C0_1" pos="49.20" period="60.00" file="e1output.xml" friendlyPos="1"/>
    <inductionLoop id="e1det_B1A1_0" lane="B1A1_0" pos="49.20" period="60.00" file="e1output.xml" friendlyPos="1"/>
    <inductionLoop id="e1det_B1A1_1" lane="B1A1_1" pos="49.20" period="60.00" file="e1output.xml" friendlyPos="1"/>
    <inductionLoop id="e1det_B1B0_0" lane="B1B0_0" pos="49.20" period="60.00" file="e1output.xml" friendlyPos="1"/>
    <inductionLoop id="e1det_B1B0_1" lane="B1B0_1" pos="49.20" period="60.00" file="e1output.xml" friendlyPos="1"/>
    <inductionLoop id="e1det_B1B2_0" lane="B1B2_0" pos="49.20" period="60.00" file="e1output.xml" friendlyPos="1"/>
    <inductionLoop id="e1det_B1B2_1" lane="B1B2_1" pos="49.20" period="60.00" file="e1output.xml" friendlyPos="1"/>
    <inductionLoop id="e1det_B1C1_0" lane="B1C1_0" pos="49.20" period="60.00" file="e1output.xml" friendlyPos="1"/>
    <inductionLoop id="e1det_B1C1_1" lane="B1C1_1" pos="49.20" period="60.00" file="e1output.xml" friendlyPos="1"/>
    <inductionLoop id="e1det_B2A2_0" lane="B2A2_0" pos="49.20" period="60.00" file="e1output.xml" friendlyPos="1"/>
    <inductionLoop id="e1det_B2A2_1" lane="B2A2_1" pos="49.20" period="60.00" file="e1output.xml" friendlyPos="1"/>
    <inductionLoop id="e1det_B2B1_0" lane="B2B1_0" pos="49.20" period="60.00" file="e1output.xml" friendlyPos="1"/>
    <inductionLoop id="e1det_B2B1_1" lane="B2B1_1" pos="49.20" period="60.00" file="e1output.xml" friendlyPos="1"/>
    <inductionLoop id="e1det_B2B3_0" lane="B2B3_0" pos="49.20" period="60.00" file="e1output.xml" friendlyPos="1"/>
    <inductionLoop id="e1det_B2B3_1" lane="B2B3_1" pos="49.20" period="60.00" file="e1output.xml" friendlyPos="1"/>
    <inductionLoop id="e1det_B2C2_0" lane="B2C2_0" pos="49.20" period="60.00" file="e1output.xml" friendlyPos="1"/>
    <inductionLoop id="e1det_B2C2_1" lane="B2C2_1" pos="49.20" period="60.00" file="e1output.xml" friendlyPos="1"/>
    <inductionLoop id="e1det_B3A3_0" lane="B3A3_0" pos="49.20" period="60.00" file="e1output.xml" friendlyPos="1"/>
    <inductionLoop id="e1det_B3A3_1" lane="B3A3_1" pos="49.20" period="60.00" file="e1output.xml" friendlyPos="1"/>
    <inductionLoop id="e1det_B3B2_0" lane="B3B2_0" pos="49.20" period="60.00" file="e1output.xml" friendlyPos="1"/>
    <inductionLoop id="e1det_B3B2_1" lane="B3B2_1" pos="49.20" period="60.00" file="e1output.xml" friendlyPos="1"/>
    <inductionLoop id="e1det_B3B4_0" lane="B3B4_0" pos="49.20" period="60.00" file="e1output.xml" friendlyPos="1"/>
    <inductionLoop id="e1det_B3B4_1" lane="B3B4_1" pos="49.20" period="60.00" file="e1output.xml" friendlyPos="1"/>
    <inductionLoop id="e1det_B3C3_0" lane="B3C3_0" pos="49.20" period="60.00" file="e1output.xml" friendlyPos="1"/>
    <inductionLoop id="e1det_B3C3_1" lane="B3C3_1" pos="49.20" period="60.00" file="e1output.xml" friendlyPos="1"/>
    <inductionLoop id="e1det_B4A4_0" lane="B4A4_0" pos="53.20" period="60.00" file="e1output.xml" friendlyPos="1"/>
    <inductionLoop id="e1det_B4A4_1" lane="B4A4_1" pos="53.20" period="60.00" file="e1output.xml" friendlyPos="1"/>
    <inductionLoop id="e1det_B4B3_0" lane="B4B3_0" pos="49.20" period="60.00" file="e1output.xml" friendlyPos="1"/>
    <inductionLoop id="e1det_B4B3_1" lane="B4B3_1" pos="49.20" period="60.00" file="e1output.xml" friendlyPos="1"/>
    <inductionLoop id="e1det_B4C4_0" lane="B4C4_0" pos="49.20" period="60.00" file="e1output.xml" friendlyPos="1"/>
    <inductionLoop id="e1det_B4C4_1" lane="B4C4_1" pos="49.20" period="60.00" file="e1output.xml" friendlyPos="1"/>
    <inductionLoop id="e1det_C0B0_0" lane="C0B0_0" pos="49.20" period="60.00" file="e1output.xml" friendlyPos="1"/>
    <inductionLoop id="e1det_C0B0_1" lane="C0B0_1" pos="49.20" period="60.00" file="e1output.xml" friendlyPos="1"/>
    <inductionLoop id="e1det_C0C1_0" lane="C0C1_0" pos="49.20" period="60.00" file="e1output.xml" friendlyPos="1"/>
    <inductionLoop id="e1det_C0C1_1" lane="C0C1_1" pos="49.20" period="60.00" file="e1output.xml" friendlyPos="1"/>
    <inductionLoop id="e1det_C0D0_0" lane="C0D0_0" pos="49.20" period="60.00" file="e1output.xml" friendlyPos="1"/>
    <inductionLoop id="e1det_C0D0_1" lane="C0D0_1" pos="49.20" period="60.00" file="e1output.xml" friendlyPos="1"/>
    <inductionLoop id="e1det_C1B1_0" lane="C1B1_0" pos="49.20" period="60.00" file="e1output.xml" friendlyPos="1"/>
    <inductionLoop id="e1det_C1B1_1" lane="C1B1_1" pos="49.20" period="60.00" file="e1output.xml" friendlyPos="1"/>
    <inductionLoop id="e1det_C1C0_0" lane="C1C0_0" pos="49.20" period="60.00" file="e1output.xml" friendlyPos="1"/>
    <inductionLoop id="e1det_C1C0_1" lane="C1C0_1" pos="49.20" period="60.00" file="e1output.xml" friendlyPos="1"/>
    <inductionLoop id="e1det_C1C2_0" lane="C1C2_0" pos="49.20" period="60.00" file="e1output.xml" friendlyPos="1"/>
    <inductionLoop id="e1det_C1C2_1" lane="C1C2_1" pos="49.20" period="60.00" file="e1output.xml" friendlyPos="1"/>
    <inductionLoop id="e1det_C1D1_0" lane="C1D1_0" pos="49.20" period="60.00" file="e1output.xml" friendlyPos="1"/>
    <inductionLoop id="e1det_C1D1_1" lane="C1D1_1" pos="49.20" period="60.00" file="e1output.xml" friendlyPos="1"/>
    <inductionLoop id="e1det_C2B2_0" lane="C2B2_0" pos="49.20" period="60.00" file="e1output.xml" friendlyPos="1"/>
    <inductionLoop id="e1det_C2B2_1" lane="C2B2_1" pos="49.20" period="60.00" file="e1output.xml" friendlyPos="1"/>
    <inductionLoop id="e1det_C2C1_0" lane="C2C1_0" pos="49.20" period="60.00" file="e1output.xml" friendlyPos="1"/>
    <inductionLoop id="e1det_C2C1_1" lane="C2C1_1" pos="49.20" period="60.00" file="e1output.xml" friendlyPos="1"/>
    <inductionLoop id="e1det_C2C3_0" lane="C2C3_0" pos="49.20" period="60.00" file="e1output.xml" friendlyPos="1"/>
    <inductionLoop id="e1det_C2C3_1" lane="C2C3_1" pos="49.20" period="60.00" file="e1output.xml" friendlyPos="1"/>
    <inductionLoop id="e1det_C2D2_0" lane="C2D2_0" pos="49.20" period="60.00" file="e1output.xml" friendlyPos="1"/>
    <inductionLoop id="e1det_C2D2_1" lane="C2D2_1" pos="49.20" period="60.00" file="e1output.xml" friendlyPos="1"/>
    <inductionLoop id="e1det_C3B3_0" lane="C3B3_0" pos="49.20" period="60.00" file="e1output.xml" friendlyPos="1"/>
    <inductionLoop id="e1det_C3B3_1" lane="C3B3_1" pos="49.20" period="60.00" file="e1output.xml" friendlyPos="1"/>
    <inductionLoop id="e1det_C3C2_0" lane="C3C2_0" pos="49.20" period="60.00" file="e1output.xml" friendlyPos="1"/>
    <inductionLoop id="e1det_C3C2_1" lane="C3C2_1" pos="49.20" period="60.00" file="e1output.xml" friendlyPos="1"/>
    <inductionLoop id="e1det_C3C4_0" lane="C3C4_0" pos="49.20" period="60.00" file="e1output.xml" friendlyPos="1"/>
    <inductionLoop id="e1det_C3C4_1" lane="C3C4_1" pos="49.20" period="60.00" file="e1output.xml" friendlyPos="1"/>
    <inductionLoop id="e1det_C3D3_0" lane="C3D3_0" pos="49.20" period="60.00" file="e1output.xml" friendlyPos="1"/>
    <inductionLoop id="e1det_C3D3_1" lane="C3D3_1" pos="49.20" period="60.00" file="e1output.xml" friendlyPos="1"/>
    <inductionLoop id="e1det_C4B4_0" lane="C4B4_0" pos="49.20" period="60.00" file="e1output.xml" friendlyPos="1"/>
    <inductionLoop id="e1det_C4B4_1" lane="C4B4_1" pos="49.20" period="60.00" file="e1output.xml" friendlyPos="1"/>
    <inductionLoop id="e1det_C4C3_0" lane="C4C3_0" pos="49.20" period="60.00" file="e1output.xml" friendlyPos="1"/>
    <inductionLoop id="e1det_C4C3_1" lane="C4C3_1" pos="49.20" period="60.00" file="e1output.xml" friendlyPos="1"/>
    <inductionLoop id="e1det_C4D4_0" lane="C4D4_0" pos="49.20" period="60.00" file="e1output.xml" friendlyPos="1"/>
    <inductionLoop id="e1det_C4D4_1" lane="C4D4_1" pos="49.20" period="60.00" file="e1output.xml" friendlyPos="1"/>
    <inductionLoop id="e1det_D0C0_0" lane="D0C0_0" pos="49.20" period="60.00" file="e1output.xml" friendlyPos="1"/>
    <inductionLoop id="e1det_D0C0_1" lane="D0C0_1" pos="49.20" period="60.00" file="e1output.xml" friendlyPos="1"/>
    <inductionLoop id="e1det_D0D1_0" lane="D0D1_0" pos="49.20" period="60.00" file="e1output.xml" friendlyPos="1"/>
    <inductionLoop id="e1det_D0D1_1" lane="D0D1_1" pos="49.20" period="60.00" file="e1output.xml" friendlyPos="1"/>
    <inductionLoop id="e1det_D0E0_0" lane="D0E0_0" pos="53.20" period="60.00" file="e1output.xml" friendlyPos="1"/>
    <inductionLoop id="e1det_D0E0_1" lane="D0E0_1" pos="53.20" period="60.00" file="e1output.xml" friendlyPos="1"/>
    <inductionLoop id="e1det_D1C1_0" lane="D1C1_0" pos="49.20" period="60.00" file="e1output.xml" friendlyPos="1"/>
    <inductionLoop id="e1det_D1C1_1" lane="D1C1_1" pos="49.20" period="60.00" file="e1output.xml" friendlyPos="1"/>
    <inductionLoop id="e1det_D1D0_0" lane="D1D0_0" pos="49.20" period="60.00" file="e1output.xml" friendlyPos="1"/>
    <inductionLoop id="e1det_D1D0_1" lane="D1D0_1" pos="49.20" period="60.00" file="e1output.xml" friendlyPos="1"/>
    <inductionLoop id="e1det_D1D2_0" lane="D1D2_0" pos="49.20" period="60.00" file="e1output.xml" friendlyPos="1"/>
    <inductionLoop id="e1det_D1D2_1" lane="D1D2_1" pos="49.20" period="60.00" file="e1output.xml" friendlyPos="1"/>
    <inductionLoop id="e1det_D1E1_0" lane="D1E1_0" pos="49.20" period="60.00" file="e1output.xml" friendlyPos="1"/>
    <inductionLoop id="e1det_D1E1_1" lane="D1E1_1" pos="49.20" period="60.00" file="e1output.xml" friendlyPos="1"/>
    <inductionLoop id="e1det_D2C2_0" lane="D2C2_0" pos="49.20" period="60.00" file="e1output.xml" friendlyPos="1"/>
    <inductionLoop id="e1det_D2C2_1" lane="D2C2_1" pos="49.20" period="60.00" file="e1output.xml" friendlyPos="1"/>
    <inductionLoop id="e1det_D2D1_0" lane="D2D1_0" pos="49.20" period="60.00" file="e1output.xml" friendlyPos="1"/>
    <inductionLoop id="e1det_D2D1_1" lane="D2D1_1" pos="49.20" period="60.00" file="e1output.xml" friendlyPos="1"/>
    <inductionLoop id="e1det_D2D3_0" lane="D2D3_0" pos="49.20" period="60.00" file="e1output.xml" friendlyPos="1"/>
    <inductionLoop id="e1det_D2D3_1" lane="D2D3_1" pos="49.20" period="60.00" file="e1output.xml" friendlyPos="1"/>
    <inductionLoop id="e1det_D2E2_0" lane="D2E2_0" pos="49.20" period="60.00" file="e1output.xml" friendlyPos="1"/>
    <inductionLoop id="e1det_D2E2_1" lane="D2E2_1" pos="49.20" period="60.00" file="e1output.xml" friendlyPos="1"/>
    <inductionLoop id="e1det_D3C3_0" lane="D3C3_0" pos="49.20" period="60.00" file="e1output.xml" friendlyPos="1"/>
    <inductionLoop id="e1det_D3C3_1" lane="D3C3_1" pos="49.20" period="60.00" file="e1output.xml" friendlyPos="1"/>
    <inductionLoop id="e1det_D3D2_0" lane="D3D2_0" pos="49.20" period="60.00" file="e1output.xml" friendlyPos="1"/>
    <inductionLoop id="e1det_D3D2_1" lane="D3D2_1" pos="49.20" period="60.00" file="e1output.xml" friendlyPos="1"/>
    <inductionLoop id="e1det_D3D4_0" lane="D3D4_0" pos="49.20" period="60.00" file="e1output.xml" friendlyPos="1"/>
    <inductionLoop id="e1det_D3D4_1" lane="D3D4_1" pos="49.20" period="60.00" file="e1output.xml" friendlyPos="1"/>
    <inductionLoop id="e1det_D3E3_0" lane="D3E3_0" pos="49.20" period="60.00" file="e1output.xml" friendlyPos="1"/>
    <inductionLoop id="e1det_D3E3_1" lane="D3E3_1" pos="49.20" period="60.00" file="e1output.xml" friendlyPos="1"/>
    <inductionLoop id="e1det_D4C4_0" lane="D4C4_0" pos="49.20" period="60.00" file="e1output.xml" friendlyPos="1"/>
    <inductionLoop id="e1det_D4C4_1" lane="D4C4_1" pos="49.20" period="60.00" file="e1output.xml" friendlyPos="1"/>
    <inductionLoop id="e1det_D4D3_0" lane="D4D3_0" pos="49.20" period="60.00" file="e1output.xml" friendlyPos="1"/>
    <inductionLoop id="e1det_D4D3_1" lane="D4D3_1" pos="49.20" period="60.00" file="e1output.xml" friendlyPos="1"/>
    <inductionLoop id="e1det_D4E4_0" lane="D4E4_0" pos="53.20" period="60.00" file="e1output.xml" friendlyPos="1"/>
    <inductionLoop id="e1det_D4E4_1" lane="D4E4_1" pos="53.20" period="60.00" file="e1output.xml" friendlyPos="1"/>
    <inductionLoop id="e1det_E0D0_0" lane="E0D0_0" pos="53.20" period="60.00" file="e1output.xml" friendlyPos="1"/>
    <inductionLoop id="e1det_E0D0_1" lane="E0D0_1" pos="53.20" period="60.00" file="e1output.xml" friendlyPos="1"/>
    <inductionLoop id="e1det_E0E1_0" lane="E0E1_0" pos="53.20" period="60.00" file="e1output.xml" friendlyPos="1"/>
    <inductionLoop id="e1det_E0E1_1" lane="E0E1_1" pos="53.20" period="60.00" file="e1output.xml" friendlyPos="1"/>
    <inductionLoop id="e1det_E1D1_0" lane="E1D1_0" pos="49.20" period="60.00" file="e1output.xml" friendlyPos="1"/>
    <inductionLoop id="e1det_E1D1_1" lane="E1D1_1" pos="49.20" period="60.00" file="e1output.xml" friendlyPos="1"/>
    <inductionLoop id="e1det_E1E0_0" lane="E1E0_0" pos="53.20" period="60.00" file="e1output.xml" friendlyPos="1"/>
    <inductionLoop id="e1det_E1E0_1" lane="E1E0_1" pos="53.20" period="60.00" file="e1output.xml" friendlyPos="1"/>
    <inductionLoop id="e1det_E1E2_0" lane="E1E2_0" pos="49.20" period="60.00" file="e1output.xml" friendlyPos="1"/>
    <inductionLoop id="e1det_E1E2_1" lane="E1E2_1" pos="49.20" period="60.00" file="e1output.xml" friendlyPos="1"/>
    <inductionLoop id="e1det_E2D2_0" lane="E2D2_0" pos="49.20" period="60.00" file="e1output.xml" friendlyPos="1"/>
    <inductionLoop id="e1det_E2D2_1" lane="E2D2_1" pos="49.20" period="60.00" file="e1output.xml" friendlyPos="1"/>
    <inductionLoop id="e1det_E2E1_0" lane="E2E1_0" pos="49.20" period="60.00" file="e1output.xml" friendlyPos="1"/>
    <inductionLoop id="e1det_E2E1_1" lane="E2E1_1" pos="49.20" period="60.00" file="e1output.xml" friendlyPos="1"/>
    <inductionLoop id="e1det_E2E3_0" lane="E2E3_0" pos="49.20" period="60.00" file="e1output.xml" friendlyPos="1"/>
    <inductionLoop id="e1det_E2E3_1" lane="E2E3_1" pos="49.20" period="60.00" file="e1output.xml" friendlyPos="1"/>
    <inductionLoop id="e1det_E3D3_0" lane="E3D3_0" pos="49.20" period="60.00" file="e1output.xml" friendlyPos="1"/>
    <inductionLoop id="e1det_E3D3_1" lane="E3D3_1" pos="49.20" period="60.00" file="e1output.xml" friendlyPos="1"/>
    <inductionLoop id="e1det_E3E2_0" lane="E3E2_0" pos="49.20" period="60.00" file="e1output.xml" friendlyPos="1"/>
    <inductionLoop id="e1det_E3E2_1" lane="E3E2_1" pos="49.20" period="60.00" file="e1output.xml" friendlyPos="1"/>
    <inductionLoop id="e1det_E3E4_0" lane="E3E4_0" pos="53.20" period="60.00" file="e1output.xml" friendlyPos="1"/>
    <inductionLoop id="e1det_E3E4_1" lane="E3E4_1" pos="53.20" period="60.00" file="e1output.xml" friendlyPos="1"/>
    <inductionLoop id="e1det_E4D4_0" lane="E4D4_0" pos="53.20" period="60.00" file="e1output.xml" friendlyPos="1"/>
    <inductionLoop id="e1det_E4D4_1" lane="E4D4_1" pos="53.20" period="60.00" file="e1output.xml" friendlyPos="1"/>
    <inductionLoop id="e1det_E4E3_0" lane="E4E3_0" pos="53.20" period="60.00" file="e1output.xml" friendlyPos="1"/>
    <inductionLoop id="e1det_E4E3_1" lane="E4E3_1" pos="53.20" period="60.00" file="e1output.xml" friendlyPos="1"/>
</additional>
