<?xml version="1.0" encoding="UTF-8"?>

<!-- generated on 2023-05-23 17:16:16 by Eclipse SUMO netedit Version 1.17.0
<configuration xmlns:xsi="http://www.w3.org/2001/XMLSchema-instance" xsi:noNamespaceSchemaLocation="http://sumo.dlr.de/xsd/netconvertConfiguration.xsd">

    <input>
        <sumocfg-file value="/home/christophe/Desktop/BODS_sample_rate/test_network/network.sumocfg"/>
        <additional-files value="/home/christophe/Desktop/BODS_sample_rate/test_network/detectors.add.xml"/>
        <route-files value="/home/christophe/Desktop/BODS_sample_rate/test_network/trips.xml"/>
        <sumo-net-file value="/home/christophe/Desktop/BODS_sample_rate/test_network/grid.net.xml"/>
    </input>

    <output>
        <output-file value="/home/christophe/Desktop/BODS_sample_rate/test_network/grid.net.xml"/>
    </output>

    <processing>
        <geometry.min-radius.fix.railways value="false"/>
        <geometry.max-grade.fix value="false"/>
        <offset.disable-normalization value="true"/>
        <lefthand value="1"/>
    </processing>

    <junctions>
        <no-turnarounds value="true"/>
        <junctions.corner-detail value="5"/>
        <junctions.limit-turn-speed value="5.50"/>
        <rectangular-lane-cut value="0"/>
    </junctions>

    <pedestrian>
        <walkingareas value="0"/>
    </pedestrian>

</configuration>
-->

<net version="1.16" junctionCornerDetail="5" lefthand="true" limitTurnSpeed="5.50" xmlns:xsi="http://www.w3.org/2001/XMLSchema-instance" xsi:noNamespaceSchemaLocation="http://sumo.dlr.de/xsd/net_file.xsd">

    <location netOffset="0.00,0.00" convBoundary="0.00,0.00,400.00,400.00" origBoundary="0.00,0.00,400.00,400.00" projParameter="!"/>

    <edge id=":1_0" function="internal">
        <lane id=":1_0_0" index="0" speed="8.96" length="18.06" shape="6.40,-4.80 1.50,-4.10 -2.00,-2.00 -4.10,1.50 -4.80,6.40"/>
        <lane id=":1_0_1" index="1" speed="7.66" length="12.90" shape="6.40,-1.60 2.90,-1.10 0.40,0.40 -1.10,2.90 -1.60,6.40"/>
    </edge>
    <edge id=":1_2" function="internal">
        <lane id=":1_2_0" index="0" speed="3.90" length="2.58" shape="4.80,6.40 4.90,5.70 5.20,5.20 5.70,4.90 6.40,4.80"/>
        <lane id=":1_2_1" index="1" speed="6.08" length="7.74" shape="1.60,6.40 1.90,4.30 2.80,2.80 4.30,1.90 6.40,1.60"/>
    </edge>
    <edge id=":10_0" function="internal">
        <lane id=":10_0_0" index="0" speed="6.51" length="9.03" shape="95.20,389.60 94.85,392.05 93.80,393.80 92.05,394.85 89.60,395.20"/>
        <lane id=":10_0_1" index="1" speed="8.00" length="14.19" shape="98.40,389.60 97.85,393.45 96.20,396.20 93.45,397.85 89.60,398.40"/>
    </edge>
    <edge id=":10_2" function="internal">
        <lane id=":10_2_0" index="0" speed="9.26" length="19.35" shape="98.40,389.60 99.15,394.85 101.40,398.60 105.15,400.85 110.40,401.60"/>
    </edge>
    <edge id=":10_3" function="internal">
        <lane id=":10_3_0" index="0" speed="3.65" length="2.34" shape="98.40,389.60 99.20,390.80 100.00,391.20"/>
    </edge>
    <edge id=":10_12" function="internal">
        <lane id=":10_12_0" index="0" speed="3.65" length="2.34" shape="100.00,391.20 100.80,390.80 101.60,389.60"/>
    </edge>
    <edge id=":10_4" function="internal">
        <lane id=":10_4_0" index="0" speed="6.51" length="9.03" shape="110.40,395.20 107.95,394.85 106.20,393.80 105.15,392.05 104.80,389.60"/>
    </edge>
    <edge id=":10_5" function="internal">
        <lane id=":10_5_0" index="0" speed="13.89" length="20.80" shape="110.40,395.20 89.60,395.20"/>
        <lane id=":10_5_1" index="1" speed="13.89" length="20.80" shape="110.40,398.40 89.60,398.40"/>
    </edge>
    <edge id=":10_7" function="internal">
        <lane id=":10_7_0" index="0" speed="3.65" length="1.44" shape="110.40,398.40 109.20,399.20"/>
    </edge>
    <edge id=":10_13" function="internal">
        <lane id=":10_13_0" index="0" speed="3.65" length="3.23" shape="109.20,399.20 108.80,400.00 109.20,400.80 110.40,401.60"/>
    </edge>
    <edge id=":10_8" function="internal">
        <lane id=":10_8_0" index="0" speed="13.89" length="20.80" shape="89.60,404.80 110.40,404.80"/>
        <lane id=":10_8_1" index="1" speed="13.89" length="20.80" shape="89.60,401.60 110.40,401.60"/>
    </edge>
    <edge id=":10_10" function="internal">
        <lane id=":10_10_0" index="0" speed="9.26" length="5.01" shape="89.60,401.60 94.56,400.89"/>
    </edge>
    <edge id=":10_11" function="internal">
        <lane id=":10_11_0" index="0" speed="3.65" length="1.44" shape="89.60,401.60 90.80,400.80"/>
    </edge>
    <edge id=":10_14" function="internal">
        <lane id=":10_14_0" index="0" speed="9.26" length="14.34" shape="94.56,400.89 94.85,400.85 98.60,398.60 100.85,394.85 101.60,389.60"/>
    </edge>
    <edge id=":10_15" function="internal">
        <lane id=":10_15_0" index="0" speed="3.65" length="3.23" shape="90.80,400.80 91.20,400.00 90.80,399.20 89.60,398.40"/>
    </edge>
    <edge id=":11_0" function="internal">
        <lane id=":11_0_0" index="0" speed="13.89" length="20.80" shape="210.40,-4.80 189.60,-4.80"/>
        <lane id=":11_0_1" index="1" speed="13.89" length="20.80" shape="210.40,-1.60 189.60,-1.60"/>
    </edge>
    <edge id=":11_2" function="internal">
        <lane id=":11_2_0" index="0" speed="9.26" length="5.01" shape="210.40,-1.60 205.44,-0.89"/>
    </edge>
    <edge id=":11_3" function="internal">
        <lane id=":11_3_0" index="0" speed="3.65" length="1.44" shape="210.40,-1.60 209.20,-0.80"/>
    </edge>
    <edge id=":11_12" function="internal">
        <lane id=":11_12_0" index="0" speed="9.26" length="14.34" shape="205.44,-0.89 205.15,-0.85 201.40,1.40 199.15,5.15 198.40,10.40"/>
    </edge>
    <edge id=":11_13" function="internal">
        <lane id=":11_13_0" index="0" speed="3.65" length="3.23" shape="209.20,-0.80 208.80,-0.00 209.20,0.80 210.40,1.60"/>
    </edge>
    <edge id=":11_4" function="internal">
        <lane id=":11_4_0" index="0" speed="6.51" length="9.03" shape="204.80,10.40 205.15,7.95 206.20,6.20 207.95,5.15 210.40,4.80"/>
        <lane id=":11_4_1" index="1" speed="8.00" length="14.19" shape="201.60,10.40 202.15,6.55 203.80,3.80 206.55,2.15 210.40,1.60"/>
    </edge>
    <edge id=":11_6" function="internal">
        <lane id=":11_6_0" index="0" speed="9.26" length="19.35" shape="201.60,10.40 200.85,5.15 198.60,1.40 194.85,-0.85 189.60,-1.60"/>
    </edge>
    <edge id=":11_7" function="internal">
        <lane id=":11_7_0" index="0" speed="3.65" length="2.34" shape="201.60,10.40 200.80,9.20 200.00,8.80"/>
    </edge>
    <edge id=":11_14" function="internal">
        <lane id=":11_14_0" index="0" speed="3.65" length="2.34" shape="200.00,8.80 199.20,9.20 198.40,10.40"/>
    </edge>
    <edge id=":11_8" function="internal">
        <lane id=":11_8_0" index="0" speed="6.51" length="9.03" shape="189.60,4.80 192.05,5.15 193.80,6.20 194.85,7.95 195.20,10.40"/>
    </edge>
    <edge id=":11_9" function="internal">
        <lane id=":11_9_0" index="0" speed="13.89" length="20.80" shape="189.60,4.80 210.40,4.80"/>
        <lane id=":11_9_1" index="1" speed="13.89" length="20.80" shape="189.60,1.60 210.40,1.60"/>
    </edge>
    <edge id=":11_11" function="internal">
        <lane id=":11_11_0" index="0" speed="3.65" length="1.44" shape="189.60,1.60 190.80,0.80"/>
    </edge>
    <edge id=":11_15" function="internal">
        <lane id=":11_15_0" index="0" speed="3.65" length="3.23" shape="190.80,0.80 191.20,-0.00 190.80,-0.80 189.60,-1.60"/>
    </edge>
    <edge id=":12_0" function="internal">
        <lane id=":12_0_0" index="0" speed="6.51" length="9.03" shape="195.20,89.60 194.85,92.05 193.80,93.80 192.05,94.85 189.60,95.20"/>
    </edge>
    <edge id=":12_1" function="internal">
        <lane id=":12_1_0" index="0" speed="13.89" length="20.80" shape="195.20,89.60 195.20,110.40"/>
        <lane id=":12_1_1" index="1" speed="13.89" length="20.80" shape="198.40,89.60 198.40,110.40"/>
    </edge>
    <edge id=":12_3" function="internal">
        <lane id=":12_3_0" index="0" speed="9.26" length="5.01" shape="198.40,89.60 199.11,94.56"/>
    </edge>
    <edge id=":12_4" function="internal">
        <lane id=":12_4_0" index="0" speed="3.65" length="1.44" shape="198.40,89.60 199.20,90.80"/>
    </edge>
    <edge id=":12_20" function="internal">
        <lane id=":12_20_0" index="0" speed="9.26" length="14.34" shape="199.11,94.56 199.15,94.85 201.40,98.60 205.15,100.85 210.40,101.60"/>
    </edge>
    <edge id=":12_21" function="internal">
        <lane id=":12_21_0" index="0" speed="3.65" length="3.23" shape="199.20,90.80 200.00,91.20 200.80,90.80 201.60,89.60"/>
    </edge>
    <edge id=":12_5" function="internal">
        <lane id=":12_5_0" index="0" speed="6.51" length="9.03" shape="210.40,95.20 207.95,94.85 206.20,93.80 205.15,92.05 204.80,89.60"/>
    </edge>
    <edge id=":12_6" function="internal">
        <lane id=":12_6_0" index="0" speed="13.89" length="20.80" shape="210.40,95.20 189.60,95.20"/>
        <lane id=":12_6_1" index="1" speed="13.89" length="20.80" shape="210.40,98.40 189.60,98.40"/>
    </edge>
    <edge id=":12_8" function="internal">
        <lane id=":12_8_0" index="0" speed="9.26" length="5.01" shape="210.40,98.40 205.44,99.11"/>
    </edge>
    <edge id=":12_9" function="internal">
        <lane id=":12_9_0" index="0" speed="3.65" length="1.44" shape="210.40,98.40 209.20,99.20"/>
    </edge>
    <edge id=":12_22" function="internal">
        <lane id=":12_22_0" index="0" speed="9.26" length="14.34" shape="205.44,99.11 205.15,99.15 201.40,101.40 199.15,105.15 198.40,110.40"/>
    </edge>
    <edge id=":12_23" function="internal">
        <lane id=":12_23_0" index="0" speed="3.65" length="3.23" shape="209.20,99.20 208.80,100.00 209.20,100.80 210.40,101.60"/>
    </edge>
    <edge id=":12_10" function="internal">
        <lane id=":12_10_0" index="0" speed="6.51" length="9.03" shape="204.80,110.40 205.15,107.95 206.20,106.20 207.95,105.15 210.40,104.80"/>
    </edge>
    <edge id=":12_11" function="internal">
        <lane id=":12_11_0" index="0" speed="13.89" length="20.80" shape="204.80,110.40 204.80,89.60"/>
        <lane id=":12_11_1" index="1" speed="13.89" length="20.80" shape="201.60,110.40 201.60,89.60"/>
    </edge>
    <edge id=":12_13" function="internal">
        <lane id=":12_13_0" index="0" speed="9.26" length="5.01" shape="201.60,110.40 200.89,105.44"/>
    </edge>
    <edge id=":12_14" function="internal">
        <lane id=":12_14_0" index="0" speed="3.65" length="1.44" shape="201.60,110.40 200.80,109.20"/>
    </edge>
    <edge id=":12_24" function="internal">
        <lane id=":12_24_0" index="0" speed="9.26" length="14.34" shape="200.89,105.44 200.85,105.15 198.60,101.40 194.85,99.15 189.60,98.40"/>
    </edge>
    <edge id=":12_25" function="internal">
        <lane id=":12_25_0" index="0" speed="3.65" length="3.23" shape="200.80,109.20 200.00,108.80 199.20,109.20 198.40,110.40"/>
    </edge>
    <edge id=":12_15" function="internal">
        <lane id=":12_15_0" index="0" speed="6.51" length="9.03" shape="189.60,104.80 192.05,105.15 193.80,106.20 194.85,107.95 195.20,110.40"/>
    </edge>
    <edge id=":12_16" function="internal">
        <lane id=":12_16_0" index="0" speed="13.89" length="20.80" shape="189.60,104.80 210.40,104.80"/>
        <lane id=":12_16_1" index="1" speed="13.89" length="20.80" shape="189.60,101.60 210.40,101.60"/>
    </edge>
    <edge id=":12_18" function="internal">
        <lane id=":12_18_0" index="0" speed="9.26" length="5.01" shape="189.60,101.60 194.56,100.89"/>
    </edge>
    <edge id=":12_19" function="internal">
        <lane id=":12_19_0" index="0" speed="3.65" length="1.44" shape="189.60,101.60 190.80,100.80"/>
    </edge>
    <edge id=":12_26" function="internal">
        <lane id=":12_26_0" index="0" speed="9.26" length="14.34" shape="194.56,100.89 194.85,100.85 198.60,98.60 200.85,94.85 201.60,89.60"/>
    </edge>
    <edge id=":12_27" function="internal">
        <lane id=":12_27_0" index="0" speed="3.65" length="3.23" shape="190.80,100.80 191.20,100.00 190.80,99.20 189.60,98.40"/>
    </edge>
    <edge id=":13_0" function="internal">
        <lane id=":13_0_0" index="0" speed="6.51" length="9.03" shape="195.20,189.60 194.85,192.05 193.80,193.80 192.05,194.85 189.60,195.20"/>
    </edge>
    <edge id=":13_1" function="internal">
        <lane id=":13_1_0" index="0" speed="13.89" length="20.80" shape="195.20,189.60 195.20,210.40"/>
        <lane id=":13_1_1" index="1" speed="13.89" length="20.80" shape="198.40,189.60 198.40,210.40"/>
    </edge>
    <edge id=":13_3" function="internal">
        <lane id=":13_3_0" index="0" speed="9.26" length="5.01" shape="198.40,189.60 199.11,194.56"/>
    </edge>
    <edge id=":13_4" function="internal">
        <lane id=":13_4_0" index="0" speed="3.65" length="1.44" shape="198.40,189.60 199.20,190.80"/>
    </edge>
    <edge id=":13_20" function="internal">
        <lane id=":13_20_0" index="0" speed="9.26" length="14.34" shape="199.11,194.56 199.15,194.85 201.40,198.60 205.15,200.85 210.40,201.60"/>
    </edge>
    <edge id=":13_21" function="internal">
        <lane id=":13_21_0" index="0" speed="3.65" length="3.23" shape="199.20,190.80 200.00,191.20 200.80,190.80 201.60,189.60"/>
    </edge>
    <edge id=":13_5" function="internal">
        <lane id=":13_5_0" index="0" speed="6.51" length="9.03" shape="210.40,195.20 207.95,194.85 206.20,193.80 205.15,192.05 204.80,189.60"/>
    </edge>
    <edge id=":13_6" function="internal">
        <lane id=":13_6_0" index="0" speed="13.89" length="20.80" shape="210.40,195.20 189.60,195.20"/>
        <lane id=":13_6_1" index="1" speed="13.89" length="20.80" shape="210.40,198.40 189.60,198.40"/>
    </edge>
    <edge id=":13_8" function="internal">
        <lane id=":13_8_0" index="0" speed="9.26" length="5.01" shape="210.40,198.40 205.44,199.11"/>
    </edge>
    <edge id=":13_9" function="internal">
        <lane id=":13_9_0" index="0" speed="3.65" length="1.44" shape="210.40,198.40 209.20,199.20"/>
    </edge>
    <edge id=":13_22" function="internal">
        <lane id=":13_22_0" index="0" speed="9.26" length="14.34" shape="205.44,199.11 205.15,199.15 201.40,201.40 199.15,205.15 198.40,210.40"/>
    </edge>
    <edge id=":13_23" function="internal">
        <lane id=":13_23_0" index="0" speed="3.65" length="3.23" shape="209.20,199.20 208.80,200.00 209.20,200.80 210.40,201.60"/>
    </edge>
    <edge id=":13_10" function="internal">
        <lane id=":13_10_0" index="0" speed="6.51" length="9.03" shape="204.80,210.40 205.15,207.95 206.20,206.20 207.95,205.15 210.40,204.80"/>
    </edge>
    <edge id=":13_11" function="internal">
        <lane id=":13_11_0" index="0" speed="13.89" length="20.80" shape="204.80,210.40 204.80,189.60"/>
        <lane id=":13_11_1" index="1" speed="13.89" length="20.80" shape="201.60,210.40 201.60,189.60"/>
    </edge>
    <edge id=":13_13" function="internal">
        <lane id=":13_13_0" index="0" speed="9.26" length="5.01" shape="201.60,210.40 200.89,205.44"/>
    </edge>
    <edge id=":13_14" function="internal">
        <lane id=":13_14_0" index="0" speed="3.65" length="1.44" shape="201.60,210.40 200.80,209.20"/>
    </edge>
    <edge id=":13_24" function="internal">
        <lane id=":13_24_0" index="0" speed="9.26" length="14.34" shape="200.89,205.44 200.85,205.15 198.60,201.40 194.85,199.15 189.60,198.40"/>
    </edge>
    <edge id=":13_25" function="internal">
        <lane id=":13_25_0" index="0" speed="3.65" length="3.23" shape="200.80,209.20 200.00,208.80 199.20,209.20 198.40,210.40"/>
    </edge>
    <edge id=":13_15" function="internal">
        <lane id=":13_15_0" index="0" speed="6.51" length="9.03" shape="189.60,204.80 192.05,205.15 193.80,206.20 194.85,207.95 195.20,210.40"/>
    </edge>
    <edge id=":13_16" function="internal">
        <lane id=":13_16_0" index="0" speed="13.89" length="20.80" shape="189.60,204.80 210.40,204.80"/>
        <lane id=":13_16_1" index="1" speed="13.89" length="20.80" shape="189.60,201.60 210.40,201.60"/>
    </edge>
    <edge id=":13_18" function="internal">
        <lane id=":13_18_0" index="0" speed="9.26" length="5.01" shape="189.60,201.60 194.56,200.89"/>
    </edge>
    <edge id=":13_19" function="internal">
        <lane id=":13_19_0" index="0" speed="3.65" length="1.44" shape="189.60,201.60 190.80,200.80"/>
    </edge>
    <edge id=":13_26" function="internal">
        <lane id=":13_26_0" index="0" speed="9.26" length="14.34" shape="194.56,200.89 194.85,200.85 198.60,198.60 200.85,194.85 201.60,189.60"/>
    </edge>
    <edge id=":13_27" function="internal">
        <lane id=":13_27_0" index="0" speed="3.65" length="3.23" shape="190.80,200.80 191.20,200.00 190.80,199.20 189.60,198.40"/>
    </edge>
    <edge id=":14_0" function="internal">
        <lane id=":14_0_0" index="0" speed="6.51" length="9.03" shape="195.20,289.60 194.85,292.05 193.80,293.80 192.05,294.85 189.60,295.20"/>
    </edge>
    <edge id=":14_1" function="internal">
        <lane id=":14_1_0" index="0" speed="13.89" length="20.80" shape="195.20,289.60 195.20,310.40"/>
        <lane id=":14_1_1" index="1" speed="13.89" length="20.80" shape="198.40,289.60 198.40,310.40"/>
    </edge>
    <edge id=":14_3" function="internal">
        <lane id=":14_3_0" index="0" speed="9.26" length="5.01" shape="198.40,289.60 199.11,294.56"/>
    </edge>
    <edge id=":14_4" function="internal">
        <lane id=":14_4_0" index="0" speed="3.65" length="1.44" shape="198.40,289.60 199.20,290.80"/>
    </edge>
    <edge id=":14_20" function="internal">
        <lane id=":14_20_0" index="0" speed="9.26" length="14.34" shape="199.11,294.56 199.15,294.85 201.40,298.60 205.15,300.85 210.40,301.60"/>
    </edge>
    <edge id=":14_21" function="internal">
        <lane id=":14_21_0" index="0" speed="3.65" length="3.23" shape="199.20,290.80 200.00,291.20 200.80,290.80 201.60,289.60"/>
    </edge>
    <edge id=":14_5" function="internal">
        <lane id=":14_5_0" index="0" speed="6.51" length="9.03" shape="210.40,295.20 207.95,294.85 206.20,293.80 205.15,292.05 204.80,289.60"/>
    </edge>
    <edge id=":14_6" function="internal">
        <lane id=":14_6_0" index="0" speed="13.89" length="20.80" shape="210.40,295.20 189.60,295.20"/>
        <lane id=":14_6_1" index="1" speed="13.89" length="20.80" shape="210.40,298.40 189.60,298.40"/>
    </edge>
    <edge id=":14_8" function="internal">
        <lane id=":14_8_0" index="0" speed="9.26" length="5.01" shape="210.40,298.40 205.44,299.11"/>
    </edge>
    <edge id=":14_9" function="internal">
        <lane id=":14_9_0" index="0" speed="3.65" length="1.44" shape="210.40,298.40 209.20,299.20"/>
    </edge>
    <edge id=":14_22" function="internal">
        <lane id=":14_22_0" index="0" speed="9.26" length="14.34" shape="205.44,299.11 205.15,299.15 201.40,301.40 199.15,305.15 198.40,310.40"/>
    </edge>
    <edge id=":14_23" function="internal">
        <lane id=":14_23_0" index="0" speed="3.65" length="3.23" shape="209.20,299.20 208.80,300.00 209.20,300.80 210.40,301.60"/>
    </edge>
    <edge id=":14_10" function="internal">
        <lane id=":14_10_0" index="0" speed="6.51" length="9.03" shape="204.80,310.40 205.15,307.95 206.20,306.20 207.95,305.15 210.40,304.80"/>
    </edge>
    <edge id=":14_11" function="internal">
        <lane id=":14_11_0" index="0" speed="13.89" length="20.80" shape="204.80,310.40 204.80,289.60"/>
        <lane id=":14_11_1" index="1" speed="13.89" length="20.80" shape="201.60,310.40 201.60,289.60"/>
    </edge>
    <edge id=":14_13" function="internal">
        <lane id=":14_13_0" index="0" speed="9.26" length="5.01" shape="201.60,310.40 200.89,305.44"/>
    </edge>
    <edge id=":14_14" function="internal">
        <lane id=":14_14_0" index="0" speed="3.65" length="1.44" shape="201.60,310.40 200.80,309.20"/>
    </edge>
    <edge id=":14_24" function="internal">
        <lane id=":14_24_0" index="0" speed="9.26" length="14.34" shape="200.89,305.44 200.85,305.15 198.60,301.40 194.85,299.15 189.60,298.40"/>
    </edge>
    <edge id=":14_25" function="internal">
        <lane id=":14_25_0" index="0" speed="3.65" length="3.23" shape="200.80,309.20 200.00,308.80 199.20,309.20 198.40,310.40"/>
    </edge>
    <edge id=":14_15" function="internal">
        <lane id=":14_15_0" index="0" speed="6.51" length="9.03" shape="189.60,304.80 192.05,305.15 193.80,306.20 194.85,307.95 195.20,310.40"/>
    </edge>
    <edge id=":14_16" function="internal">
        <lane id=":14_16_0" index="0" speed="13.89" length="20.80" shape="189.60,304.80 210.40,304.80"/>
        <lane id=":14_16_1" index="1" speed="13.89" length="20.80" shape="189.60,301.60 210.40,301.60"/>
    </edge>
    <edge id=":14_18" function="internal">
        <lane id=":14_18_0" index="0" speed="9.26" length="5.01" shape="189.60,301.60 194.56,300.89"/>
    </edge>
    <edge id=":14_19" function="internal">
        <lane id=":14_19_0" index="0" speed="3.65" length="1.44" shape="189.60,301.60 190.80,300.80"/>
    </edge>
    <edge id=":14_26" function="internal">
        <lane id=":14_26_0" index="0" speed="9.26" length="14.34" shape="194.56,300.89 194.85,300.85 198.60,298.60 200.85,294.85 201.60,289.60"/>
    </edge>
    <edge id=":14_27" function="internal">
        <lane id=":14_27_0" index="0" speed="3.65" length="3.23" shape="190.80,300.80 191.20,300.00 190.80,299.20 189.60,298.40"/>
    </edge>
    <edge id=":15_0" function="internal">
        <lane id=":15_0_0" index="0" speed="6.51" length="9.03" shape="195.20,389.60 194.85,392.05 193.80,393.80 192.05,394.85 189.60,395.20"/>
        <lane id=":15_0_1" index="1" speed="8.00" length="14.19" shape="198.40,389.60 197.85,393.45 196.20,396.20 193.45,397.85 189.60,398.40"/>
    </edge>
    <edge id=":15_2" function="internal">
        <lane id=":15_2_0" index="0" speed="9.26" length="19.35" shape="198.40,389.60 199.15,394.85 201.40,398.60 205.15,400.85 210.40,401.60"/>
    </edge>
    <edge id=":15_3" function="internal">
        <lane id=":15_3_0" index="0" speed="3.65" length="2.34" shape="198.40,389.60 199.20,390.80 200.00,391.20"/>
    </edge>
    <edge id=":15_12" function="internal">
        <lane id=":15_12_0" index="0" speed="3.65" length="2.34" shape="200.00,391.20 200.80,390.80 201.60,389.60"/>
    </edge>
    <edge id=":15_4" function="internal">
        <lane id=":15_4_0" index="0" speed="6.51" length="9.03" shape="210.40,395.20 207.95,394.85 206.20,393.80 205.15,392.05 204.80,389.60"/>
    </edge>
    <edge id=":15_5" function="internal">
        <lane id=":15_5_0" index="0" speed="13.89" length="20.80" shape="210.40,395.20 189.60,395.20"/>
        <lane id=":15_5_1" index="1" speed="13.89" length="20.80" shape="210.40,398.40 189.60,398.40"/>
    </edge>
    <edge id=":15_7" function="internal">
        <lane id=":15_7_0" index="0" speed="3.65" length="1.44" shape="210.40,398.40 209.20,399.20"/>
    </edge>
    <edge id=":15_13" function="internal">
        <lane id=":15_13_0" index="0" speed="3.65" length="3.23" shape="209.20,399.20 208.80,400.00 209.20,400.80 210.40,401.60"/>
    </edge>
    <edge id=":15_8" function="internal">
        <lane id=":15_8_0" index="0" speed="13.89" length="20.80" shape="189.60,404.80 210.40,404.80"/>
        <lane id=":15_8_1" index="1" speed="13.89" length="20.80" shape="189.60,401.60 210.40,401.60"/>
    </edge>
    <edge id=":15_10" function="internal">
        <lane id=":15_10_0" index="0" speed="9.26" length="5.01" shape="189.60,401.60 194.56,400.89"/>
    </edge>
    <edge id=":15_11" function="internal">
        <lane id=":15_11_0" index="0" speed="3.65" length="1.44" shape="189.60,401.60 190.80,400.80"/>
    </edge>
    <edge id=":15_14" function="internal">
        <lane id=":15_14_0" index="0" speed="9.26" length="14.34" shape="194.56,400.89 194.85,400.85 198.60,398.60 200.85,394.85 201.60,389.60"/>
    </edge>
    <edge id=":15_15" function="internal">
        <lane id=":15_15_0" index="0" speed="3.65" length="3.23" shape="190.80,400.80 191.20,400.00 190.80,399.20 189.60,398.40"/>
    </edge>
    <edge id=":16_0" function="internal">
        <lane id=":16_0_0" index="0" speed="13.89" length="20.80" shape="310.40,-4.80 289.60,-4.80"/>
        <lane id=":16_0_1" index="1" speed="13.89" length="20.80" shape="310.40,-1.60 289.60,-1.60"/>
    </edge>
    <edge id=":16_2" function="internal">
        <lane id=":16_2_0" index="0" speed="9.26" length="5.01" shape="310.40,-1.60 305.44,-0.89"/>
    </edge>
    <edge id=":16_3" function="internal">
        <lane id=":16_3_0" index="0" speed="3.65" length="1.44" shape="310.40,-1.60 309.20,-0.80"/>
    </edge>
    <edge id=":16_12" function="internal">
        <lane id=":16_12_0" index="0" speed="9.26" length="14.34" shape="305.44,-0.89 305.15,-0.85 301.40,1.40 299.15,5.15 298.40,10.40"/>
    </edge>
    <edge id=":16_13" function="internal">
        <lane id=":16_13_0" index="0" speed="3.65" length="3.23" shape="309.20,-0.80 308.80,-0.00 309.20,0.80 310.40,1.60"/>
    </edge>
    <edge id=":16_4" function="internal">
        <lane id=":16_4_0" index="0" speed="6.51" length="9.03" shape="304.80,10.40 305.15,7.95 306.20,6.20 307.95,5.15 310.40,4.80"/>
        <lane id=":16_4_1" index="1" speed="8.00" length="14.19" shape="301.60,10.40 302.15,6.55 303.80,3.80 306.55,2.15 310.40,1.60"/>
    </edge>
    <edge id=":16_6" function="internal">
        <lane id=":16_6_0" index="0" speed="9.26" length="19.35" shape="301.60,10.40 300.85,5.15 298.60,1.40 294.85,-0.85 289.60,-1.60"/>
    </edge>
    <edge id=":16_7" function="internal">
        <lane id=":16_7_0" index="0" speed="3.65" length="2.34" shape="301.60,10.40 300.80,9.20 300.00,8.80"/>
    </edge>
    <edge id=":16_14" function="internal">
        <lane id=":16_14_0" index="0" speed="3.65" length="2.34" shape="300.00,8.80 299.20,9.20 298.40,10.40"/>
    </edge>
    <edge id=":16_8" function="internal">
        <lane id=":16_8_0" index="0" speed="6.51" length="9.03" shape="289.60,4.80 292.05,5.15 293.80,6.20 294.85,7.95 295.20,10.40"/>
    </edge>
    <edge id=":16_9" function="internal">
        <lane id=":16_9_0" index="0" speed="13.89" length="20.80" shape="289.60,4.80 310.40,4.80"/>
        <lane id=":16_9_1" index="1" speed="13.89" length="20.80" shape="289.60,1.60 310.40,1.60"/>
    </edge>
    <edge id=":16_11" function="internal">
        <lane id=":16_11_0" index="0" speed="3.65" length="1.44" shape="289.60,1.60 290.80,0.80"/>
    </edge>
    <edge id=":16_15" function="internal">
        <lane id=":16_15_0" index="0" speed="3.65" length="3.23" shape="290.80,0.80 291.20,-0.00 290.80,-0.80 289.60,-1.60"/>
    </edge>
    <edge id=":17_0" function="internal">
        <lane id=":17_0_0" index="0" speed="6.51" length="9.03" shape="295.20,89.60 294.85,92.05 293.80,93.80 292.05,94.85 289.60,95.20"/>
    </edge>
    <edge id=":17_1" function="internal">
        <lane id=":17_1_0" index="0" speed="13.89" length="20.80" shape="295.20,89.60 295.20,110.40"/>
        <lane id=":17_1_1" index="1" speed="13.89" length="20.80" shape="298.40,89.60 298.40,110.40"/>
    </edge>
    <edge id=":17_3" function="internal">
        <lane id=":17_3_0" index="0" speed="9.26" length="5.01" shape="298.40,89.60 299.11,94.56"/>
    </edge>
    <edge id=":17_4" function="internal">
        <lane id=":17_4_0" index="0" speed="3.65" length="1.44" shape="298.40,89.60 299.20,90.80"/>
    </edge>
    <edge id=":17_20" function="internal">
        <lane id=":17_20_0" index="0" speed="9.26" length="14.34" shape="299.11,94.56 299.15,94.85 301.40,98.60 305.15,100.85 310.40,101.60"/>
    </edge>
    <edge id=":17_21" function="internal">
        <lane id=":17_21_0" index="0" speed="3.65" length="3.23" shape="299.20,90.80 300.00,91.20 300.80,90.80 301.60,89.60"/>
    </edge>
    <edge id=":17_5" function="internal">
        <lane id=":17_5_0" index="0" speed="6.51" length="9.03" shape="310.40,95.20 307.95,94.85 306.20,93.80 305.15,92.05 304.80,89.60"/>
    </edge>
    <edge id=":17_6" function="internal">
        <lane id=":17_6_0" index="0" speed="13.89" length="20.80" shape="310.40,95.20 289.60,95.20"/>
        <lane id=":17_6_1" index="1" speed="13.89" length="20.80" shape="310.40,98.40 289.60,98.40"/>
    </edge>
    <edge id=":17_8" function="internal">
        <lane id=":17_8_0" index="0" speed="9.26" length="5.01" shape="310.40,98.40 305.44,99.11"/>
    </edge>
    <edge id=":17_9" function="internal">
        <lane id=":17_9_0" index="0" speed="3.65" length="1.44" shape="310.40,98.40 309.20,99.20"/>
    </edge>
    <edge id=":17_22" function="internal">
        <lane id=":17_22_0" index="0" speed="9.26" length="14.34" shape="305.44,99.11 305.15,99.15 301.40,101.40 299.15,105.15 298.40,110.40"/>
    </edge>
    <edge id=":17_23" function="internal">
        <lane id=":17_23_0" index="0" speed="3.65" length="3.23" shape="309.20,99.20 308.80,100.00 309.20,100.80 310.40,101.60"/>
    </edge>
    <edge id=":17_10" function="internal">
        <lane id=":17_10_0" index="0" speed="6.51" length="9.03" shape="304.80,110.40 305.15,107.95 306.20,106.20 307.95,105.15 310.40,104.80"/>
    </edge>
    <edge id=":17_11" function="internal">
        <lane id=":17_11_0" index="0" speed="13.89" length="20.80" shape="304.80,110.40 304.80,89.60"/>
        <lane id=":17_11_1" index="1" speed="13.89" length="20.80" shape="301.60,110.40 301.60,89.60"/>
    </edge>
    <edge id=":17_13" function="internal">
        <lane id=":17_13_0" index="0" speed="9.26" length="5.01" shape="301.60,110.40 300.89,105.44"/>
    </edge>
    <edge id=":17_14" function="internal">
        <lane id=":17_14_0" index="0" speed="3.65" length="1.44" shape="301.60,110.40 300.80,109.20"/>
    </edge>
    <edge id=":17_24" function="internal">
        <lane id=":17_24_0" index="0" speed="9.26" length="14.34" shape="300.89,105.44 300.85,105.15 298.60,101.40 294.85,99.15 289.60,98.40"/>
    </edge>
    <edge id=":17_25" function="internal">