<?xml version="1.0" encoding="UTF-8"?>

<!-- generated on 2023-05-24 13:21:16 by Eclipse SUMO netedit Version 1.17.0
-->

<routes xmlns:xsi="http://www.w3.org/2001/XMLSchema-instance" xsi:noNamespaceSchemaLocation="http://sumo.dlr.de/xsd/routes_file.xsd">
    <!-- Vehicles, persons and containers (sorted by depart) -->
    <vehicle id="0" depart="0.00" departPos="138.11" arrivalPos="20.26">
        <route edges="D4D3 D3D2 D2D1 D1C1 C1B1"/>
    </vehicle>
    <vehicle id="1" depart="0.00" departPos="235.47" arrivalPos="270.54">
        <route edges="D2E2 E2D2 D2C2 C2B2 B2B1 B1B0 B0B1"/>
    </vehicle>
    <vehicle id="2" depart="1.00" departPos="183.40" arrivalPos="113.83">
        <route edges="A0A1 A1B1 B1C1 C1C2"/>
    </vehicle>
    <vehicle id="3" depart="2.00" departPos="71.43" arrivalPos="5.56">
        <route edges="C2C3 C3B3 B3A3 A3A2"/>
    </vehicle>
    <vehicle id="4" depart="2.00" departPos="166.63" arrivalPos="227.31">
        <route edges="D0E0 E0E1 E1D1 D1D2"/>
    </vehicle>
    <vehicle id="5" depart="3.00" departPos="255.02" arrivalPos="32.38">
        <route edges="B1B2 B2B1 B1C1 C1D1 D1D0"/>
    </vehicle>
    <vehicle id="6" depart="4.00" departPos="86.58" arrivalPos="210.76">
        <route edges="D1C1 C1C0 C0C1"/>
    </vehicle>
    <vehicle id="7" depart="4.00" departPos="109.16" arrivalPos="261.28">
        <route edges="E3E4"/>
    </vehicle>
    <vehicle id="8" depart="5.00" departPos="29.21" arrivalPos="199.83">
        <route edges="B1B0 B0C0 C0D0 D0E0 E0E1 E1E0"/>
    </vehicle>
    <vehicle id="10" depart="7.00" departPos="22.43" arrivalPos="273.01">
        <route edges="D4C4 C4B4 B4B3 B3B2 B2B1 B1B0 B0C0"/>
    </vehicle>
    <vehicle id="9" depart="7.00" departPos="187.55" arrivalPos="56.21">
        <route edges="A4A3 A3B3 B3C3 C3D3 D3D2"/>
    </vehicle>
    <vehicle id="11" depart="8.00" departPos="275.67" arrivalPos="204.16">
        <route edges="B4B3 B3A3 A3A4"/>
    </vehicle>
    <vehicle id="12" depart="8.00" departPos="91.43" arrivalPos="132.73">
        <route edges="B2B3 B3B4"/>
    </vehicle>
    <vehicle id="13" depart="8.00" departPos="18.18" arrivalPos="270.63">
        <route edges="B3A3 A3B3 B3C3 C3D3 D3E3"/>
    </vehicle>
    <vehicle id="14" depart="10.00" departPos="180.29" arrivalPos="150.76">
        <route edges="C0C1 C1C2 C2D2 D2D3"/>
    </vehicle>
    <vehicle id="15" depart="11.00" departPos="50.74" arrivalPos="145.55">
        <route edges="B1A1 A1B1 B1C1 C1D1 D1E1 E1E2 E2E3 E3E4"/>
    </vehicle>
    <vehicle id="16" depart="13.00" departPos="273.97" arrivalPos="209.50">
        <route edges="A1A0 A0B0 B0C0 C0C1 C1B1"/>
    </vehicle>
    <vehicle id="17" depart="14.00" departPos="33.94" arrivalPos="160.47">
        <route edges="C2C1 C1C2 C2C3"/>
    </vehicle>
    <vehicle id="18" depart="14.00" departPos="57.44" arrivalPos="71.18">
        <route edges="B2A2 A2A1 A1B1 B1C1 C1C0"/>
    </vehicle>
    <vehicle id="19" depart="15.00" departPos="76.46" arrivalPos="205.70">
        <route edges="B2B3 B3B2 B2C2 C2D2 D2E2 E2D2"/>
    </vehicle>
    <vehicle id="20" depart="16.00" departPos="255.97" arrivalPos="134.00">
        <route edges="C1D1 D1C1 C1B1 B1B0"/>
    </vehicle>
    <vehicle id="21" depart="17.00" departPos="71.14" arrivalPos="225.91">
        <route edges="A0A1 A1B1 B1B2 B2B3 B3B4"/>
    </vehicle>
    <vehicle id="22" depart="18.00" departPos="233.56" arrivalPos="184.21">
        <route edges="D0C0 C0D0"/>
    </vehicle>
    <vehicle id="23" depart="19.00" departPos="204.59" arrivalPos="119.17">
        <route edges="C3D3 D3C3 C3B3 B3B2 B2B1 B1B0 B0C0"/>
    </vehicle>
    <vehicle id="24" depart="19.00" departPos="86.15" arrivalPos="239.72">
        <route edges="A4B4 B4C4 C4D4 D4D3 D3D2 D2D1 D1D0 D0C0"/>
    </vehicle>
    <vehicle id="25" depart="20.00" departPos="61.01" arrivalPos="25.94">
        <route edges="B4A4 A4A3 A3A2 A2A1 A1B1"/>
    </vehicle>
    <vehicle id="26" depart="20.00" departPos="25.39" arrivalPos="76.06">
        <route edges="A2A1 A1B1 B1C1 C1D1 D1D2 D2D1"/>
    </vehicle>
    <vehicle id="27" depart="21.00" departPos="228.79" arrivalPos="123.79">
        <route edges="C0B0 B0A0 A0A1 A1A2"/>
    </vehicle>
    <vehicle id="28" depart="21.00" departPos="59.54" arrivalPos="173.35">
        <route edges="B3A3 A3A2 A2B2 B2B1"/>
    </vehicle>
    <vehicle id="29" depart="25.00" departPos="261.67" arrivalPos="95.00">
        <route edges="C3C2 C2C3"/>
    </vehicle>
    <vehicle id="30" depart="25.00" departPos="147.29" arrivalPos="255.21">
        <route edges="C2C1 C1D1 D1D2 D2D3 D3D4 D4E4"/>
    </vehicle>
    <vehicle id="31" depart="25.00" departPos="266.37" arrivalPos="250.75">
        <route edges="C0C1 C1C2 C2C3 C3B3 B3C3"/>
    </vehicle>
    <vehicle id="32" depart="25.00" departPos="24.82" arrivalPos="124.51">
        <route edges="D2E2 E2D2 D2C2 C2B2 B2B1 B1B2"/>
    </vehicle>
    <vehicle id="33" depart="27.00" departPos="153.73" arrivalPos="37.47">
        <route edges="C3D3 D3C3 C3C2 C2C1 C1C0 C0D0"/>
    </vehicle>
    <vehicle id="34" depart="27.00" departPos="23.94" arrivalPos="32.36">
        <route edges="D4D3 D3D2 D2C2 C2C1 C1D1"/>
    </vehicle>
    <vehicle id="35" depart="27.00" departPos="211.68" arrivalPos="102.51">
        <route edges="E1E0 E0D0 D0D1 D1D2 D2D3 D3C3 C3B3 B3C3"/>
    </vehicle>
    <vehicle id="36" depart="28.00" departPos="159.80" arrivalPos="81.36">
        <route edges="D2D1 D1D2 D2D3 D3C3 C3B3 B3C3"/>
    </vehicle>
    <vehicle id="37" depart="29.00" departPos="19.58" arrivalPos="152.00">
        <route edges="B0C0 C0C1 C1C2 C2B2 B2A2 A2B2"/>
    </vehicle>
    <vehicle id="38" depart="30.00" departPos="115.27" arrivalPos="7.16">
        <route edges="C1C2 C2C3 C3B3 B3B4"/>
    </vehicle>
    <vehicle id="39" depart="30.00" departPos="112.92" arrivalPos="242.30">
        <route edges="D4C4 C4B4 B4B3 B3C3"/>
    </vehicle>
    <vehicle id="40" depart="31.00" departPos="226.10" arrivalPos="94.34">
        <route edges="B4A4 A4A3 A3B3 B3B4 B4C4"/>
    </vehicle>
    <vehicle id="41" depart="32.00" departPos="83.02" arrivalPos="53.26">
        <route edges="C0D0 D0D1 D1D2 D2D3 D3C3 C3B3 B3A3 A3A2"/>
    </vehicle>
    <vehicle id="42" depart="33.00" departPos="20.41" arrivalPos="53.22">
        <route edges="A3A4 A4B4 B4B3"/>
    </vehicle>
    <vehicle id="43" depart="34.00" departPos="278.26" arrivalPos="177.93">
        <route edges="E0D0 D0C0 C0B0 B0B1 B1B2 B2B3 B3B4"/>
    </vehicle>
    <vehicle id="44" depart="35.00" departPos="243.54" arrivalPos="143.60">
        <route edges="A1A0 A0B0 B0C0 C0D0 D0D1 D1D2 D2D3"/>
    </vehicle>
    <vehicle id="45" depart="35.00" departPos="152.60" arrivalPos="189.87">
        <route edges="B1B0 B0C0 C0D0 D0E0 E0E1 E1E0 E0D0"/>
    </vehicle>
    <vehicle id="46" depart="36.00" departPos="24.89" arrivalPos="131.67">
        <route edges="D3C3 C3B3 B3A3"/>
    </vehicle>
    <vehicle id="47" depart="37.00" departPos="105.68" arrivalPos="30.80">
        <route edges="C1C0 C0B0 B0C0"/>
    </vehicle>
    <vehicle id="48" depart="37.00" departPos="91.50" arrivalPos="126.96">
        <route edges="D3D4 D4C4 C4B4 B4A4 A4A3 A3A2 A2A1 A1B1"/>
    </vehicle>
    <vehicle id="49" depart="38.00" departPos="63.63" arrivalPos="260.71">
        <route edges="C1C0 C0C1 C1C2 C2C3 C3C4 C4B4 B4A4 A4A3"/>
    </vehicle>
    <vehicle id="50" depart="39.00" departPos="125.03" arrivalPos="264.50">
        <route edges="B1B2 B2B3 B3C3"/>
    </vehicle>
    <vehicle id="51" depart="39.00" departPos="251.79" arrivalPos="148.44">
        <route edges="A3A4 A4B4 B4C4 C4C3"/>
    </vehicle>
    <vehicle id="52" depart="40.00" departPos="276.29" arrivalPos="177.40">
        <route edges="C0B0 B0C0 C0D0 D0E0 E0E1 E1D1"/>
    </vehicle>
    <vehicle id="53" depart="41.00" departPos="83.62" arrivalPos="157.71">
        <route edges="A0A1 A1B1 B1C1 C1C2 C2C3 C3C2"/>
    </vehicle>
    <vehicle id="54" depart="42.00" departPos="145.44" arrivalPos="180.69">
        <route edges="B0A0 A0A1 A1B1 B1C1 C1B1"/>
    </vehicle>
    <vehicle id="55" depart="42.00" departPos="133.82" arrivalPos="202.71">
        <route edges="D1D0 D0D1 D1C1 C1D1"/>
    </vehicle>
    <vehicle id="56" depart="42.00" departPos="250.69" arrivalPos="268.10">
        <route edges="D2D1 D1D2 D2D3 D3D4 D4C4 C4C3"/>
    </vehicle>
    <vehicle id="57" depart="43.00" departPos="75.15" arrivalPos="80.67">
        <route edges="D3E3 E3D3 D3C3 C3C2 C2C1"/>
    </vehicle>
    <vehicle id="58" depart="44.00" departPos="87.51" arrivalPos="63.75">
        <route edges="E3E4 E4D4 D4C4 C4B4 B4B3"/>
    </vehicle>
    <vehicle id="59" depart="45.00" departPos="236.08" arrivalPos="143.01">
        <route edges="D2D1 D1D2 D2C2 C2B2 B2C2"/>
    </vehicle>
    <vehicle id="60" depart="45.00" departPos="66.78" arrivalPos="268.27">
        <route edges="A2B2 B2B1 B1C1"/>
    </vehicle>
    <vehicle id="61" depart="46.00" departPos="77.51" arrivalPos="217.25">
        <route edges="B1B2 B2B3 B3B4 B4C4 C4D4"/>
    </vehicle>
    <vehicle id="62" depart="46.00" departPos="12.85" arrivalPos="102.25">
        <route edges="A1A2 A2B2 B2C2 C2D2 D2E2"/>
    </vehicle>
    <vehicle id="63" depart="47.00" departPos="121.23" arrivalPos="27.78">
        <route edges="D3D2 D2E2 E2E3"/>
    </vehicle>
    <vehicle id="64" depart="47.00" departPos="234.11" arrivalPos="208.32">
        <route edges="B3C3 C3D3 D3D4"/>
    </vehicle>
    <vehicle id="65" depart="51.00" departPos="164.72" arrivalPos="104.45">
        <route edges="D2D1 D1E1 E1E2 E2E3"/>
    </vehicle>
    <vehicle id="66" depart="51.00" departPos="39.27" arrivalPos="37.57">
        <route edges="A4B4 B4C4 C4D4 D4E4 E4E3 E3E2 E2E1 E1E0"/>
    </vehicle>
    <vehicle id="67" depart="51.00" departPos="53.35" arrivalPos="2.54">
        <route edges="E0E1 E1E2 E2E3 E3D3 D3C3 C3D3"/>
    </vehicle>
    <vehicle id="68" depart="53.00" departPos="42.45" arrivalPos="227.83">
        <route edges="A3B3 B3B2 B2B3"/>
    </vehicle>
    <vehicle id="69" depart="54.00" departPos="237.97" arrivalPos="206.93">
        <route edges="C3C2 C2B2 B2B1 B1C1"/>
    </vehicle>
    <vehicle id="70" depart="54.00" departPos="104.66" arrivalPos="143.17">
        <route edges="B1C1 C1C2 C2C3 C3C4 C4B4 B4C4"/>
    </vehicle>
    <vehicle id="71" depart="57.00" departPos="125.50" arrivalPos="186.04">
        <route edges="D3C3 C3D3 D3E3 E3D3"/>
    </vehicle>
    <vehicle id="72" depart="57.00" departPos="146.93" arrivalPos="198.16">
        <route edges="B2C2 C2C1 C1B1"/>
    </vehicle>
    <vehicle id="73" depart="57.00" departPos="108.94" arrivalPos="29.25">
        <route edges="D1D2 D2E2"/>
    </vehicle>
    <vehicle id="74" depart="58.00" departPos="248.88" arrivalPos="275.46">
        <route edges="A1B1 B1B2 B2B3 B3B4 B4A4"/>
    </vehicle>
    <vehicle id="75" depart="58.00" departPos="76.13" arrivalPos="212.34">
        <route edges="A3B3 B3B2 B2C2"/>
    </vehicle>
    <vehicle id="76" depart="59.00" departPos="64.42" arrivalPos="203.50">
        <route edges="C0C1 C1C2 C2C3 C3C4 C4B4 B4B3"/>
    </vehicle>
    <vehicle id="77" depart="60.00" departPos="110.60" arrivalPos="86.73">
        <route edges="D1D2 D2D1 D1E1 E1E0 E0D0"/>
    </vehicle>
    <vehicle id="78" depart="60.00" departPos="197.81" arrivalPos="68.29">
        <route edges="B2C2 C2B2 B2B1 B1B0 B0A0"/>
    </vehicle>
    <vehicle id="79" depart="64.00" departPos="181.96" arrivalPos="75.32">
        <route edges="D0D1 D1C1 C1B1 B1B0 B0C0"/>
    </vehicle>
    <vehicle id="80" depart="67.00" departPos="20.84" arrivalPos="40.27">
        <route edges="B2B1 B1B2 B2A2"/>
    </vehicle>
    <vehicle id="81" depart="69.00" departPos="45.68" arrivalPos="190.35">
        <route edges="E2E1 E1E0 E0D0 D0C0 C0C1"/>
    </vehicle>
    <vehicle id="82" depart="69.00" departPos="128.27" arrivalPos="101.97">
        <route edges="D4E4 E4E3 E3E4"/>
    </vehicle>
    <vehicle id="83" depart="69.00" departPos="198.00" arrivalPos="207.35">
        <route edges="C0D0 D0D1 D1C1 C1B1 B1B2"/>
    </vehicle>
    <vehicle id="84" depart="70.00" departPos="218.48" arrivalPos="184.53">
        <route edges="D2E2 E2E3 E3E4 E4D4 D4C4 C4B4"/>
    </vehicle>
    <vehicle id="85" depart="70.00" departPos="14.85" arrivalPos="27.36">
        <route edges="C4B4 B4B3 B3C3 C3D3 D3C3"/>
    </vehicle>
    <vehicle id="86" depart="70.00" departPos="227.27" arrivalPos="71.76">
        <route edges="E3E4 E4D4 D4D3 D3D2 D2D1 D1E1 E1E0 E0D0"/>
    </vehicle>
    <vehicle id="87" depart="71.00" departPos="149.75" arrivalPos="145.86">
        <route edges="D0E0 E0E1 E1E2 E2D2 D2C2 C2C1"/>
    </vehicle>
    <vehicle id="88" depart="72.00" departPos="26.59" arrivalPos="28.00">
        <route edges="C3C2 C2C1 C1C2"/>
    </vehicle>
    <vehicle id="89" depart="72.00" departPos="157.75" arrivalPos="212.07">
        <route edges="C2B2 B2C2 C2D2 D2E2 E2E3 E3E2"/>
    </vehicle>
    <vehicle id="90" depart="73.00" departPos="47.24" arrivalPos="10.42">
        <route edges="B0C0 C0C1 C1C2 C2C3 C3B3 B3A3 A3B3"/>
    </vehicle>
    <vehicle id="91" depart="77.00" departPos="15.78" arrivalPos="57.55">
        <route edges="B1A1 A1B1 B1C1 C1D1 D1D2 D2D3 D3D4 D4C4"/>
    </vehicle>
    <vehicle id="92" depart="78.00" departPos="202.30" arrivalPos="74.50">
        <route edges="D4E4 E4E3 E3E2 E2D2 D2C2 C2B2"/>
    </vehicle>
    <vehicle id="93" depart="78.00" departPos="83.90" arrivalPos="175.07">
        <route edges="D3D2 D2E2 E2E3 E3E2"/>
    </vehicle>
    <vehicle id="94" depart="79.00" departPos="48.48" arrivalPos="226.50">
        <route edges="D1E1 E1E2 E2E3 E3E4 E4D4 D4C4 C4B4 B4B3"/>
    </vehicle>
    <vehicle id="95" depart="80.00" departPos="67.38" arrivalPos="10.57">
        <route edges="A1A2 A2B2 B2C2 C2C3"/>
    </vehicle>
    <vehicle id="96" depart="87.00" departPos="219.52" arrivalPos="175.61">
        <route edges="D3D4 D4C4 C4B4 B4A4 A4A3 A3A2 A2A1"/>
    </vehicle>
    <vehicle id="100" depart="89.00" departPos="198.77" arrivalPos="235.25">
        <route edges="E1D1 D1D2 D2D3 D3D2"/>
    </vehicle>
    <vehicle id="101" depart="89.00" departPos="173.79" arrivalPos="249.60">
        <route edges="A2A1 A1B1 B1C1 C1D1 D1E1 E1E2 E2E3 E3E4 E4D4"/>
    </vehicle>
    <vehicle id="102" depart="89.00" departPos="131.96" arrivalPos="228.28">
        <route edges="B0C0 C0D0 D0D1 D1C1"/>
    </vehicle>
    <vehicle id="97" depart="89.00" departPos="246.83" arrivalPos="120.67">
        <route edges="C3B3 B3C3 C3D3 D3E3 E3E4"/>
    </vehicle>
    <vehicle id="98" depart="89.00" departPos="78.17" arrivalPos="172.07">
        <route edges="D1C1 C1D1 D1D2 D2D1"/>
    </vehicle>
    <vehicle id="99" depart="89.00" departPos="13.76" arrivalPos="117.53">
        <route edges="E0D0 D0E0 E0E1 E1E2 E2E1"/>
    </vehicle>
    <vehicle id="103" depart="91.00" departPos="123.49" arrivalPos="61.17">
        <route edges="E4D4 D4C4 C4B4 B4B3 B3B2 B2B3"/>
    </vehicle>
    <vehicle id="104" depart="92.00" departPos="263.78" arrivalPos="187.48">
        <route edges="C2C1 C1B1 B1A1"/>
    </vehicle>
    <vehicle id="105" depart="93.00" departPos="98.66" arrivalPos="163.08">
        <route edges="E2E3 E3E4 E4D4 D4C4 C4D4"/>
    </vehicle>
    <vehicle id="106" depart="93.00" departPos="41.23" arrivalPos="261.55">
        <route edges="D0C0 C0B0 B0A0"/>
    </vehicle>
    <vehicle id="107" depart="93.00" departPos="65.51" arrivalPos="183.64">
        <route edges="A0A1 A1B1 B1C1 C1D1 D1D2 D2D3 D3D2"/>
    </vehicle>
    <vehicle id="108" depart="93.00" departPos="255.71" arrivalPos="61.44">
        <route edges="D3D2 D2C2 C2B2 B2A2"/>
    </vehicle>
    <vehicle id="109" depart="94.00" departPos="201.15" arrivalPos="232.93">
        <route edges="D2D1 D1E1 E1D1"/>
    </vehicle>
    <vehicle id="110" depart="98.00" departPos="213.96" arrivalPos="134.38">
        <route edges="A2A1 A1B1 B1C1 C1D1 D1D2 D2C2"/>
    </vehicle>
    <vehicle id="111" depart="98.00" departPos="149.49" arrivalPos="79.80">
        <route edges="C3C4 C4D4 D4D3 D3D2"/>
    </vehicle>
    <vehicle id="112" depart="98.00" departPos="250.03" arrivalPos="199.53">
        <route edges="B3C3 C3D3 D3E3 E3E2 E2E1 E1E2"/>
    </vehicle>
    <vehicle id="113" depart="99.00" departPos="190.88" arrivalPos="246.40">
        <route edges="C1C0 C0D0 D0D1 D1D2 D2D3 D3D4"/>
    </vehicle>
    <vehicle id="114" depart="100.00" departPos="69.45" arrivalPos="182.69">
        <route edges="B0C0 C0D0 D0D1 D1D2 D2D3 D3D2"/>
    </vehicle>
    <vehicle id="115" depart="100.00" departPos="235.46" arrivalPos="2.22">
        <route edges="C0D0 D0E0 E0E1 E1E2 E2E3"/>
    </vehicle>
    <vehicle id="116" depart="107.00" departPos="103.46" arrivalPos="77.31">
        <route edges="C2C3 C3C4 C4B4"/>
    </vehicle>
    <vehicle id="117" depart="109.00" departPos="188.45" arrivalPos="39.08">
        <route edges="C2C3 C3C4 C4B4"/>
    </vehicle>
    <vehicle id="118" depart="110.00" departPos="271.98" arrivalPos="50.79">
        <route edges="D0E0 E0E1 E1E2 E2D2"/>
    </vehicle>
    <vehicle id="119" depart="112.00" departPos="111.17" arrivalPos="167.90">
        <route edges="D2C2 C2C1 C1D1 D1C1"/>
    </vehicle>
    <vehicle id="120" depart="114.00" departPos="51.99" arrivalPos="237.45">
        <route edges="D3D2 D2C2 C2B2 B2A2 A2A1"/>
    </vehicle>
    <vehicle id="121" depart="116.00" departPos="48.49" arrivalPos="95.64">
        <route edges="E1D1 D1D0"/>
    </vehicle>
    <vehicle id="122" depart="116.00" departPos="74.19" arrivalPos="214.63">
        <route edges="D2D1 D1E1 E1E2 E2E3 E3D3"/>
    </vehicle>
    <vehicle id="123" depart="116.00" departPos="35.08" arrivalPos="110.50">
        <route edges="D1D0 D0C0 C0B0 B0A0 A0A1 A1A2 A2A3 A3A4 A4B4"/>
    </vehicle>
    <vehicle id="124" depart="117.00" departPos="168.70" arrivalPos="268.19">
        <route edges="E3E4 E4D4 D4C4 C4C3 C3C2 C2C1 C1C0 C0B0 B0A0"/>
    </vehicle>
    <vehicle id="125" depart="118.00" departPos="9.76" arrivalPos="48.42">
        <route edges="E2E3"/>
    </vehicle>
    <vehicle id="126" depart="118.00" departPos="207.66" arrivalPos="101.24">
        <route edges="C1C0 C0D0 D0D1 D1C1"/>
    </vehicle>
    <vehicle id="127" depart="119.00" departPos="233.59" arrivalPos="165.66">
        <route edges="A3A4 A4B4 B4B3 B3B2 B2B1 B1B0"/>
    </vehicle>
    <vehicle id="128" depart="119.00" departPos="142.92" arrivalPos="59.75">
        <route edges="A2A1 A1A2 A2A3"/>
    </vehicle>
    <vehicle id="129" depart="119.00" departPos="244.60" arrivalPos="268.58">
        <route edges="E2E1 E1D1 D1C1 C1B1 B1C1"/>
    </vehicle>
    <vehicle id="130" depart="121.00" departPos="136.77" arrivalPos="57.42">
        <route edges="A3A4 A4B4 B4B3 B3B2 B2B1 B1B0 B0B1"/>
    </vehicle>
    <vehicle id="131" depart="122.00" departPos="48.63" arrivalPos="103.14">
        <route edges="A1A2 A2B2 B2B1"/>
    </vehicle>
    <vehicle id="132" depart="125.00" departPos="8.65" arrivalPos="159.10">
        <route edges="D2E2 E2E3 E3D3 D3D2"/>
    </vehicle>
    <vehicle id="133" depart="126.00" departPos="155.34" arrivalPos="142.10">
        <route edges="B4B3 B3B2 B2A2 A2A1 A1A0 A0B0"/>
    </vehicle>
    <vehicle id="134" depart="126.00" departPos="96.75" arrivalPos="216.46">
        <route edges="D4C4 C4C3 C3C2 C2C1 C1C0 C0D0 D0E0"/>
    </vehicle>
    <vehicle id="135" depart="126.00" departPos="21.01" arrivalPos="84.33">
        <route edges="D4C4 C4C3 C3D3 D3E3 E3E4"/>
    </vehicle>
    <vehicle id="136" depart="126.00" departPos="160.17" arrivalPos="133.05">
        <route edges="E2E3 E3D3 D3C3 C3B3 B3B2 B2B3"/>
    </vehicle>
    <vehicle id="137" depart="128.00" departPos="213.72" arrivalPos="165.87">
        <route edges="D3E3 E3D3 D3D2 D2D3"/>
    </vehicle>
    <vehicle id="138" depart="128.00" departPos="2.95" arrivalPos="34.30">
        <route edges="A1B1 B1B2 B2A2 A2A1"/>
    </vehicle>
    <vehicle id="139" depart="128.00" departPos="62.64" arrivalPos="56.05">
        <route edges="D1D2 D2D1 D1D0 D0C0"/>
    </vehicle>
    <vehicle id="140" depart="128.00" departPos="130.05" arrivalPos="47.91">
        <route edges="E3E4 E4D4"/>
    </vehicle>
    <vehicle id="141" depart="128.00" departPos="12.49" arrivalPos="201.86">
        <route edges="E3E4 E4D4 D4D3 D3D2 D2C2"/>
    </vehicle>
    <vehicle id="142" depart="129.00" departPos="163.46" arrivalPos="58.18">
        <route edges="D1D0 D0C0 C0B0 B0A0"/>
    </vehicle>
    <vehicle id="143" depart="129.00" departPos="114.94" arrivalPos="109.33">
        <route edges="A0B0 B0C0 C0C1 C1B1"/>
    </vehicle>
    <vehicle id="144" depart="130.00" departPos="112.53" arrivalPos="109.59">
        <route edges="A2A3 A3A2 A2B2 B2C2 C2D2 D2E2 E2D2"/>
    </vehicle>
    <vehicle id="145" depart="131.00" departPos="83.40" arrivalPos="170.47">
        <route edges="E2E1 E1E2 E2E3 E3D3 D3C3 C3B3 B3A3"/>
    </vehicle>
    <vehicle id="146" depart="132.00" departPos="167.36" arrivalPos="75.96">
        <route edges="D3C3 C3B3 B3B2 B2B1"/>
    </vehicle>
    <vehicle id="147" depart="132.00" departPos="6.64" arrivalPos="272.15">
        <route edges="C3B3 B3B2 B2C2 C2C1 C1C0"/>
    </vehicle>
    <vehicle id="148" depart="133.00" departPos="240.85" arrivalPos="55.52">
        <route edges="E3E2 E2E3 E3E4 E4D4 D4C4 C4B4 B4B3"/>
    </vehicle>
    <vehicle id="149" depart="134.00" departPos="251.69" arrivalPos="228.37">
        <route edges="A3B3 B3B2 B2B1 B1C1 C1B1"/>
    </vehicle>
    <vehicle id="150" depart="134.00" departPos="48.04" arrivalPos="97.82">
        <route edges="B4B3 B3B2 B2B1 B1B0 B0B1"/>
    </vehicle>
    <vehicle id="151" depart="135.00" departPos="5.54" arrivalPos="277.92">
        <route edges="B2A2 A2B2 B2C2 C2D2 D2E2"/>
    </vehicle>
    <vehicle id="152" depart="136.00" departPos="62.94" arrivalPos="149.40">
        <route edges="E2D2 D2D3 D3D4 D4C4 C4C3"/>
    </vehicle>
    <vehicle id="153" depart="137.00" departPos="147.03" arrivalPos="66.21">
        <route edges="C0C1 C1C2 C2C3 C3D3"/>
    </vehicle>
    <vehicle id="154" depart="138.00" departPos="195.28" arrivalPos="135.73">
        <route edges="B3B4 B4A4 A4A3 A3A2 A2B2"/>
    </vehicle>
    <vehicle id="155" depart="138.00" departPos="86.03" arrivalPos="198.47">
        <route edges="D2D1 D1D0 D0E0 E0E1"/>
    </vehicle>
    <vehicle id="156" depart="139.00" departPos="97.65" arrivalPos="151.68">
        <route edges="B2A2 A2A1 A1A0 A0B0"/>
    </vehicle>
    <vehicle id="157" depart="140.00" departPos="112.23" arrivalPos="24.65">
        <route edges="A1A2 A2A3 A3B3"/>
    </vehicle>
    <vehicle id="158" depart="141.00" departPos="194.76" arrivalPos="116.72">
        <route edges="C2C1 C1C2 C2C3 C3B3 B3A3"/>
    </vehicle>
    <vehicle id="159" depart="144.00" departPos="17.63" arrivalPos="184.97">
        <route edges="B4B3 B3C3 C3D3 D3D4 D4E4 E4E3"/>
    </vehicle>
    <vehicle id="160" depart="145.00" departPos="55.78" arrivalPos="176.09">
        <route edges="A2B2 B2B3 B3B4 B4A4"/>
    </vehicle>
    <vehicle id="161" depart="145.00" departPos="59.93" arrivalPos="29.82">
        <route edges="A2A1 A1A0 A0B0 B0A0"/>
    </vehicle>
    <vehicle id="162" depart="145.00" departPos="70.92" arrivalPos="179.07">
        <route edges="D0C0 C0C1 C1C2 C2B2"/>
    </vehicle>
    <vehicle id="163" depart="146.00" departPos="93.40" arrivalPos="251.51">
        <route edges="D3D2 D2D1 D1D0 D0C0 C0C1"/>
    </vehicle>
    <vehicle id="164" depart="147.00" departPos="67.05" arrivalPos="98.65">
        <route edges="C3B3 B3B4"/>
    </vehicle>
    <vehicle id="165" depart="147.00" departPos="271.62" arrivalPos="269.96">
        <route edges="C0D0 D0D1 D1D2 D2C2 C2B2 B2A2 A2A3 A3A4 A4B4"/>
    </vehicle>
    <vehicle id="166" depart="151.00" departPos="206.62" arrivalPos="142.73">
        <route edges="C1C2 C2B2 B2B1 B1B2"/>
    </vehicle>
    <vehicle id="167" depart="151.00" departPos="239.28" arrivalPos="275.83">
        <route edges="C3D3 D3C3 C3B3 B3A3 A3A2 A2A1"/>
    </vehicle>
    <vehicle id="168" depart="152.00" departPos="138.95" arrivalPos="38.71">
        <route edges="E4E3 E3E4 E4D4 D4C4 C4B4"/>
    </vehicle>
    <vehicle id="169" depart="153.00" departPos="206.66" arrivalPos="13.91">
        <route edges="B3A3 A3A2 A2A1 A1A0 A0B0 B0C0 C0B0"/>
    </vehicle>
    <vehicle id="170" depart="153.00" departPos="60.26" arrivalPos="67.08">
        <route edges="C1C2 C2C1 C1C0 C0D0 D0E0 E0E1"/>
    </vehicle>
    <vehicle id="171" depart="157.00" departPos="197.29" arrivalPos="181.42">
        <route edges="D1C1 C1B1 B1A1 A1B1"/>
    </vehicle>
    <vehicle id="172" depart="160.00" departPos="196.74" arrivalPos="43.49">
        <route edges="A1B1 B1C1 C1D1 D1E1 E1E2 E2D2"/>
    </vehicle>
    <vehicle id="173" depart="160.00" departPos="127.08" arrivalPos="212.62">
        <route edges="A4A3 A3A2 A2A1 A1B1 B1C1 C1D1 D1E1 E1D1"/>
    </vehicle>
    <vehicle id="174" depart="161.00" departPos="210.34" arrivalPos="150.25">
        <route edges="E3E4 E4D4 D4D3 D3D2 D2E2 E2E1"/>
    </vehicle>
    <vehicle id="175" depart="161.00" departPos="252.29" arrivalPos="63.15">
        <route edges="A1A0 A0B0 B0C0 C0C1 C1D1"/>
    </vehicle>
    <vehicle id="176" depart="161.00" departPos="51.04" arrivalPos="84.60">
        <route edges="A1A0 A0B0 B0C0 C0C1 C1B1"/>
    </vehicle>
    <vehicle id="177" depart="163.00" departPos="0.83" arrivalPos="223.41">
        <route edges="C3D3 D3C3 C3B3 B3B2 B2A2"/>
    </vehicle>
    <vehicle id="178" depart="163.00" departPos="109.50" arrivalPos="63.17">
        <route edges="A1A2 A2B2 B2C2 C2B2"/>
    </vehicle>
    <vehicle id="179" depart="163.00" departPos="65.85" arrivalPos="113.09">
        <route edges="C2C1 C1D1 D1E1 E1E0"/>
    </vehicle>
    <vehicle id="180" depart="164.00" departPos="34.40" arrivalPos="234.71">
        <route edges="B0A0 A0A1 A1A2 A2A3 A3A2"/>
    </vehicle>
    <vehicle id="181" depart="164.00" departPos="192.25" arrivalPos="221.38">
        <route edges="B0B1 B1B2 B2B3 B3A3 A3A4 A4B4"/>
    </vehicle>
    <vehicle id="182" depart="165.00" departPos="138.10" arrivalPos="191.65">
        <route edges="B2A2 A2A1 A1B1 B1C1 C1B1"/>
    </vehicle>
    <vehicle id="183" depart="169.00" departPos="183.81" arrivalPos="185.33">
        <route edges="C0C1 C1D1 D1D2"/>
    </vehicle>
    <vehicle id="184" depart="169.00" departPos="44.43" arrivalPos="198.85">
        <route edges="E1E2 E2E3 E3D3 D3C3 C3B3 B3A3 A3A4 A4B4"/>
    </vehicle>
    <vehicle id="185" depart="170.00" departPos="142.21" arrivalPos="201.16">
        <route edges="E4D4 D4C4 C4C3 C3C2 C2C1 C1C2"/>
    </vehicle>
    <vehicle id="186" depart="171.00" departPos="35.15" arrivalPos="151.66">
        <route edges="A3A2 A2A1 A1A0 A0B0 B0C0 C0D0 D0C0"/>
    </vehicle>
    <vehicle id="187" depart="172.00" departPos="190.74" arrivalPos="83.48">
        <route edges="D0D1 D1C1 C1B1 B1A1"/>
    </vehicle>
    <vehicle id="188" depart="172.00" departPos="176.59" arrivalPos="198.96">
        <route edges="A4B4 B4B3 B3B2 B2B1 B1B0 B0C0"/>
    </vehicle>
    <vehicle id="189" depart="173.00" departPos="269.91" arrivalPos="3.18">
        <route edges="D0E0 E0E1 E1E2 E2D2 D2C2 C2B2 B2A2 A2A3"/>
    </vehicle>
    <vehicle id="190" depart="173.00" departPos="59.57" arrivalPos="2.06">
        <route edges="D1D0 D0D1 D1D2 D2C2 C2D2"/>
    </vehicle>
    <vehicle id="191" depart="176.00" departPos="163.24" arrivalPos="232.94">
        <route edges="C2C3 C3C2 C2C1 C1C0"/>
    </vehicle>
    <vehicle id="192" depart="176.00" departPos="96.65" arrivalPos="164.81">
        <route edges="B1C1 C1B1 B1A1"/>
    </vehicle>
    <vehicle id="193" depart="178.00" departPos="208.97" arrivalPos="277.49">
        <route edges="D0D1 D1D2 D2C2 C2B2 B2A2"/>
    </vehicle>
    <vehicle id="194" depart="180.00" departPos="278.71" arrivalPos="209.48">
        <route edges="A1A0 A0B0 B0C0 C0C1 C1C2 C2B2"/>
    </vehicle>
    <vehicle id="195" depart="181.00" departPos="69.73" arrivalPos="158.25">
        <route edges="D3C3 C3B3 B3B2"/>
    </vehicle>
    <vehicle id="196" depart="184.00" departPos="3.46" arrivalPos="183.78">
        <route edges="B1B2 B2B3 B3C3 C3C4"/>
    </vehicle>
    <vehicle id="197" depart="185.00" departPos="256.50" arrivalPos="261.85">
        <route edges="C1C0 C0D0 D0E0 E0E1 E1E2 E2E3 E3E4"/>
    </vehicle>
    <vehicle id="198" depart="185.00" departPos="67.96" arrivalPos="195.64">
        <route edges="A4A3 A3B3 B3A3"/>
    </vehicle>
    <vehicle id="199" depart="185.00" departPos="211.51" arrivalPos="109.59">
        <route edges="E3E4 E4D4 D4C4 C4C3 C3C2 C2C1 C1B1 B1A1"/>
    </vehicle>
    <vehicle id="200" depart="189.00" departPos="189.55" arrivalPos="140.18">
        <route edges="C1B1 B1B2 B2B1"/>
    </vehicle>
    <vehicle id="201" depart="189.00" departPos="161.15" arrivalPos="61.28">
        <route edges="D0D1 D1D2 D2D3 D3D4"/>
    </vehicle>
    <vehicle id="202" depart="191.00" departPos="13.98" arrivalPos="190.34">
        <route edges="C2C1 C1D1 D1D2 D2D1"/>
    </vehicle>
    <vehicle id="203" depart="193.00" departPos="175.51" arrivalPos="182.93">
        <route edges="A2A3 A3A2 A2A1 A1B1 B1A1"/>
    </vehicle>
    <vehicle id="204" depart="193.00" departPos="20.10" arrivalPos="28.81">
        <route edges="B3B2 B2B3 B3A3"/>
    </vehicle>
    <vehicle id="205" depart="194.00" departPos="7.72" arrivalPos="103.09">
        <route edges="E3E4 E4D4 D4D3 D3D4"/>
    </vehicle>
    <vehicle id="206" depart="194.00" departPos="265.41" arrivalPos="24.46">
        <route edges="B3B2 B2B1 B1C1 C1D1 D1D0"/>
    </vehicle>
    <vehicle id="207" depart="196.00" departPos="1.81" arrivalPos="123.30">
        <route edges="D1C1 C1C2 C2C3 C3C4 C4B4 B4B3"/>
    </vehicle>
    <vehicle id="208" depart="197.00" departPos="4.30" arrivalPos="16.25">
        <route edges="B4C4 C4D4 D4E4 E4E3 E3E2 E2E1"/>
    </vehicle>
    <vehicle id="209" depart="198.00" departPos="224.51" arrivalPos="207.69">
        <route edges="B1C1 C1C2 C2B2 B2B3"/>
    </vehicle>
    <vehicle id="210" depart="198.00" departPos="224.67" arrivalPos="62.43">