<?xml version="1.0" encoding="UTF-8"?>

<!-- generated on 2023-05-24 13:25:11.941444 by tlsCycleAdaptation.py UNKNOWN
<configuration>
    <net-file value="/home/christophe/Desktop/BODS_sample_rate/random_network/net.net.xml"/>
    <output-file value="/home/christophe/Desktop/BODS_sample_rate/random_network/tlsAdaptation.add.xml"/>
    <route-files value="/home/christophe/Desktop/BODS_sample_rate/random_network/routes.rou.xml"/>
    <min-green value="7"/>
    <min-cycle value="45"/>
    <write-critical-flows value="True"/>
</configuration>
-->

<additional xmlns:xsi="http://www.w3.org/2001/XMLSchema-instance" xsi:noNamespaceSchemaLocation="http://sumo.dlr.de/xsd/additional_file.xsd">
    <tlLogic id="A0" type="actuated" programID="a" offset="0">
        <phase duration="18" state="GGGG"/>
        <phase duration="3" state="yyyy"/>
        <phase duration="18" state="GGGG"/>
        <phase duration="3" state="yyyy"/>
    </tlLogic>
    <tlLogic id="A1" type="actuated" programID="a" offset="0">
        <phase duration="23" state="GGggrrrrGGGg"/>
        <phase duration="4" state="yyyyrrrryyyy"/>
        <phase duration="14" state="rrrrGGGgGrrr"/>
        <phase duration="4" state="rrrryyyyyrrr"/>
    </tlLogic>
    <tlLogic id="A2" type="actuated" programID="a" offset="0">
        <phase duration="20" state="GGggrrrrGGGg"/>
        <phase duration="4" state="yyyyrrrryyyy"/>
        <phase duration="17" state="rrrrGGGgGrrr"/>
        <phase duration="4" state="rrrryyyyyrrr"/>
    </tlLogic>
    <tlLogic id="A3" type="actuated" programID="a" offset="0">
        <phase duration="16" state="GGggrrrrGGGg"/>
        <phase duration="4" state="yyyyrrrryyyy"/>
        <phase duration="21" state="rrrrGGGgGrrr"/>
        <phase duration="4" state="rrrryyyyyrrr"/>
    </tlLogic>
    <tlLogic id="A4" type="actuated" programID="a" offset="0">
        <phase duration="18" state="GGGG"/>
        <phase duration="3" state="yyyy"/>
        <phase duration="18" state="GGGG"/>
        <phase duration="3" state="yyyy"/>
    </tlLogic>
    <tlLogic id="B0" type="actuated" programID="a" offset="0">
        <phase duration="17" state="GGggrrrrGGGg"/>
        <phase duration="4" state="yyyyrrrryyyy"/>
        <phase duration="20" state="rrrrGGGgGrrr"/>
        <phase duration="4" state="rrrryyyyyrrr"/>
    </tlLogic>
    <tlLogic id="B1" type="actuated" programID="a" offset="0">
        <phase duration="21" state="GGGggrrrrrGGGggrrrrr"/>
        <phase duration="4" state="yyyyyrrrrryyyyyrrrrr"/>
        <phase duration="16" state="rrrrrGGGggrrrrrGGGgg"/>
        <phase duration="4" state="rrrrryyyyyrrrrryyyyy"/>
    </tlLogic>
    <tlLogic id="B2" type="actuated" programID="a" offset="0">
        <phase duration="21" state="GGGggrrrrrGGGggrrrrr"/>
        <phase duration="4" state="yyyyyrrrrryyyyyrrrrr"/>
        <phase duration="16" state="rrrrrGGGggrrrrrGGGgg"/>
        <phase duration="4" state="rrrrryyyyyrrrrryyyyy"/>
    </tlLogic>
    <tlLogic id="B3" type="actuated" programID="a" offset="0">
        <phase duration="15" state="GGGggrrrrrGGGggrrrrr"/>
        <phase duration="4" state="yyyyyrrrrryyyyyrrrrr"/>
        <phase duration="22" state="rrrrrGGGggrrrrrGGGgg"/>
        <phase duration="4" state="rrrrryyyyyrrrrryyyyy"/>
    </tlLogic>
    <tlLogic id="B4" type="actuated" programID="a" offset="0">
        <phase duration="24" state="rrrrGGGgGGgg"/>
        <phase duration="4" state="rrrryyyyyyyy"/>
        <phase duration="13" state="GGGgGrrrrrrr"/>
        <phase duration="4" state="yyyyyrrrrrrr"/>
    </tlLogic>
    <tlLogic id="C0" type="actuated" programID="a" offset="0">
        <phase duration="20" state="GGggrrrrGGGg"/>
        <phase duration="4" state="yyyyrrrryyyy"/>
        <phase duration="17" state="rrrrGGGgGrrr"/>
        <phase duration="4" state="rrrryyyyyrrr"/>
    </tlLogic>
    <tlLogic id="C1" type="actuated" programID="a" offset="0">
        <phase duration="16" state="GGGggrrrrrGGGggrrrrr"/>
        <phase duration="4" state="yyyyyrrrrryyyyyrrrrr"/>
        <phase duration="21" state="rrrrrGGGggrrrrrGGGgg"/>
        <phase duration="4" state="rrrrryyyyyrrrrryyyyy"/>
    </tlLogic>
    <tlLogic id="C2" type="actuated" programID="a" offset="0">
        <phase duration="18" state="GGGggrrrrrGGGggrrrrr"/>
        <phase duration="4" state="yyyyyrrrrryyyyyrrrrr"/>
        <phase duration="19" state="rrrrrGGGggrrrrrGGGgg"/>
        <phase duration="4" state="rrrrryyyyyrrrrryyyyy"/>
    </tlLogic>
    <tlLogic id="C3" type="actuated" programID="a" offset="0">
        <phase duration="16" state="GGGggrrrrrGGGggrrrrr"/>
        <phase duration="4" state="yyyyyrrrrryyyyyrrrrr"/>
        <phase duration="21" state="rrrrrGGGggrrrrrGGGgg"/>
        <phase duration="4" state="rrrrryyyyyrrrrryyyyy"/>
    </tlLogic>
    <tlLogic id="C4" type="actuated" programID="a" offset="0">
        <phase duration="21" state="rrrrGGGgGGgg"/>
        <phase duration="4" state="rrrryyyyyyyy"/>
        <phase duration="16" state="GGGgGrrrrrrr"/>
        <phase duration="4" state="yyyyyrrrrrrr"/>
    </tlLogic>
    <tlLogic id="D0" type="actuated" programID="a" offset="0">
        <phase duration="21" state="GGggrrrrGGGg"/>
        <phase duration="4" state="yyyyrrrryyyy"/>
        <phase duration="16" state="rrrrGGGgGrrr"/>
        <phase duration="4" state="rrrryyyyyrrr"/>
    </tlLogic>
    <tlLogic id="D1" type="actuated" programID="a" offset="0">
        <phase duration="15" state="GGGggrrrrrGGGggrrrrr"/>
        <phase duration="4" state="yyyyyrrrrryyyyyrrrrr"/>
        <phase duration="22" state="rrrrrGGGggrrrrrGGGgg"/>
        <phase duration="4" state="rrrrryyyyyrrrrryyyyy"/>
    </tlLogic>
    <tlLogic id="D2" type="actuated" programID="a" offset="0">
        <phase duration="23" state="GGGggrrrrrGGGggrrrrr"/>
        <phase duration="4" state="yyyyyrrrrryyyyyrrrrr"/>
        <phase duration="14" state="rrrrrGGGggrrrrrGGGgg"/>
        <phase duration="4" state="rrrrryyyyyrrrrryyyyy"/>
    </tlLogic>
    <tlLogic id="D3" type="actuated" programID="a" offset="0">
        <phase duration="21" state="GGGggrrrrrGGGggrrrrr"/>
        <phase duration="4" state="yyyyyrrrrryyyyyrrrrr"/>
        <phase duration="16" state="rrrrrGGGggrrrrrGGGgg"/>
        <phase duration="4" state="rrrrryyyyyrrrrryyyyy"/>
    </tlLogic>
    <tlLogic id="D4" type="actuated" programID="a" offset="0">
        <phase duration="16" state="rrrrGGGgGGgg"/>
        <phase duration="4" state="rrrryyyyyyyy"/>
        <phase duration="21" state="GGGgGrrrrrrr"/>
        <phase duration="4" state="yyyyyrrrrrrr"/>
    </tlLogic>
    <tlLogic id="E0" type="actuated" programID="a" offset="0">
        <phase duration="18" state="GGGG"/>
        <phase duration="3" state="yyyy"/>
        <phase duration="18" state="GGGG"/>
        <phase duration="3" state="yyyy"/>
    </tlLogic>
    <tlLogic id="E1" type="actuated" programID="a" offset="0">
        <phase duration="15" state="GGGgGGggrrrr"/>
        <phase duration="4" state="yyyyyyyyrrrr"/>
        <phase duration="22" state="GrrrrrrrGGGg"/>
        <phase duration="4" state="yrrrrrrryyyy"/>
    </tlLogic>
    <tlLogic id="E2" type="actuated" programID="a" offset="0">
        <phase duration="23" state="GGGgGGggrrrr"/>
        <phase duration="4" state="yyyyyyyyrrrr"/>
        <phase duration="14" state="GrrrrrrrGGGg"/>
        <phase duration="4" state="yrrrrrrryyyy"/>
    </tlLogic>
    <tlLogic id="E3" type="actuated" programID="a" offset="0">
        <phase duration="22" state="GGGgGGggrrrr"/>
        <phase duration="4" state="yyyyyyyyrrrr"/>
        <phase duration="15" state="GrrrrrrrGGGg"/>
        <phase duration="4" state="yrrrrrrryyyy"/>
    </tlLogic>
    <tlLogic id="E4" type="actuated" programID="a" offset="0">
        <phase duration="18" state="GGGG"/>
        <phase duration="3" state="yyyy"/>
        <phase duration="18" state="GGGG"/>
        <phase duration="3" state="yyyy"/>
    </tlLogic>
</additional>
